BEGIN options
END options

BEGIN griddata
  icelltype
    INTERNAL  FACTOR  1
      0  0  0  0  0  0  0  0  0  0  0  0  0  0  0  0  0  0  0  0
    0  0  0  0  0  0  0  0  0  0  0  0  0  0  0  0  0  0  0  0
    0  0  0  0  0  0  0  0  0  0
    0  0  0  0  0  0  0  0  0  0  0  0  0  0  0  0  0  0  0  0
    0  0  0  0  0  0  0  0  0  0  0  0  0  0  0  0  0  0  0  0
    0  0  0  0  0  0  0  0  0  0
    0  0  0  0  0  0  0  0  0  0  0  0  0  0  0  0  0  0  0  0
    0  0  0  0  0  0  0  0  0  0  0  0  0  0  0  0  0  0  0  0
    0  0  0  0  0  0  0  0  0  0
    0  0  0  0  0  0  0  0  0  0  0  0  0  0  0  0  0  0  0  0
    0  0  0  0  0  0  0  0  0  0  0  0  0  0  0  0  0  0  0  0
    0  0  0  0  0  0  0  0  0  0
    0  0  0  0  0  0  0  0  0  0  0  0  0  0  0  0  0  0  0  0
    0  0  0  0  0  0  0  0  0  0  0  0  0  0  0  0  0  0  0  0
    0  0  0  0  0  0  0  0  0  0
    0  0  0  0  0  0  0  0  0  0  0  0  0  0  0  0  0  0  0  0
    0  0  0  0  0  0  0  0  0  0  0  0  0  0  0  0  0  0  0  0
    0  0  0  0  0  0  0  0  0  0
    0  0  0  0  0  0  0  0  0  0  0  0  0  0  0  0  0  0  0  0
    0  0  0  0  0  0  0  0  0  0  0  0  0  0  0  0  0  0  0  0
    0  0  0  0  0  0  0  0  0  0
    0  0  0  0  0  0  0  0  0  0  0  0  0  0  0  0  0  0  0  0
    0  0  0  0  0  0  0  0  0  0  0  0  0  0  0  0  0  0  0  0
    0  0  0  0  0  0  0  0  0  0
    0  0  0  0  0  0  0  0  0  0  0  0  0  0  0  0  0  0  0  0
    0  0  0  0  0  0  0  0  0  0  0  0  0  0  0  0  0  0  0  0
    0  0  0  0  0  0  0  0  0  0
    0  0  0  0  0  0  0  0  0  0  0  0  0  0  0  0  0  0  0  0
    0  0  0  0  0  0  0  0  0  0  0  0  0  0  0  0  0  0  0  0
    0  0  0  0  0  0  0  0  0  0
    0  0  0  0  0  0  0  0  0  0  0  0  0  0  0  0  0  0  0  0
    0  0  0  0  0  0  0  0  0  0  0  0  0  0  0  0  0  0  0  0
    0  0  0  0  0  0  0  0  0  0
    0  0  0  0  0  0  0  0  0  0  0  0  0  0  0  0  0  0  0  0
    0  0  0  0  0  0  0  0  0  0  0  0  0  0  0  0  0  0  0  0
    0  0  0  0  0  0  0  0  0  0
    0  0  0  0  0  0  0  0  0  0  0  0  0  0  0  0  0  0  0  0
    0  0  0  0  0  0  0  0  0  0  0  0  0  0  0  0  0  0  0  0
    0  0  0  0  0  0  0  0  0  0
    0  0  0  0  0  0  0  0  0  0  0  0  0  0  0  0  0  0  0  0
    0  0  0  0  0  0  0  0  0  0  0  0  0  0  0  0  0  0  0  0
    0  0  0  0  0  0  0  0  0  0
    0  0  0  0  0  0  0  0  0  0  0  0  0  0  0  0  0  0  0  0
    0  0  0  0  0  0  0  0  0  0  0  0  0  0  0  0  0  0  0  0
    0  0  0  0  0  0  0  0  0  0
    0  0  0  0  0  0  0  0  0  0  0  0  0  0  0  0  0  0  0  0
    0  0  0  0  0  0  0  0  0  0  0  0  0  0  0  0  0  0  0  0
    0  0  0  0  0  0  0  0  0  0
    0  0  0  0  0  0  0  0  0  0  0  0  0  0  0  0  0  0  0  0
    0  0  0  0  0  0  0  0  0  0  0  0  0  0  0  0  0  0  0  0
    0  0  0  0  0  0  0  0  0  0
    0  0  0  0  0  0  0  0  0  0  0  0  0  0  0  0  0  0  0  0
    0  0  0  0  0  0  0  0  0  0  0  0  0  0  0  0  0  0  0  0
    0  0  0  0  0  0  0  0  0  0
    0  0  0  0  0  0  0  0  0  0  0  0  0  0  0  0  0  0  0  0
    0  0  0  0  0  0  0  0  0  0  0  0  0  0  0  0  0  0  0  0
    0  0  0  0  0  0  0  0  0  0
    0  0  0  0  0  0  0  0  0  0  0  0  0  0  0  0  0  0  0  0
    0  0  0  0  0  0  0  0  0  0  0  0  0  0  0  0  0  0  0  0
    0  0  0  0  0  0  0  0  0  0
    0  0  0  0  0  0  0  0  0  0  0  0  0  0  0  0  0  0  0  0
    0  0  0  0  0  0  0  0  0  0  0  0  0  0  0  0  0  0  0  0
    0  0  0  0  0  0  0  0  0  0
    0  0  0  0  0  0  0  0  0  0  0  0  0  0  0  0  0  0  0  0
    0  0  0  0  0  0  0  0  0  0  0  0  0  0  0  0  0  0  0  0
    0  0  0  0  0  0  0  0  0  0
    0  0  0  0  0  0  0  0  0  0  0  0  0  0  0  0  0  0  0  0
    0  0  0  0  0  0  0  0  0  0  0  0  0  0  0  0  0  0  0  0
    0  0  0  0  0  0  0  0  0  0
    0  0  0  0  0  0  0  0  0  0  0  0  0  0  0  0  0  0  0  0
    0  0  0  0  0  0  0  0  0  0  0  0  0  0  0  0  0  0  0  0
    0  0  0  0  0  0  0  0  0  0
    0  0  0  0  0  0  0  0  0  0  0  0  0  0  0  0  0  0  0  0
    0  0  0  0  0  0  0  0  0  0  0  0  0  0  0  0  0  0  0  0
    0  0  0  0  0  0  0  0  0  0
    0  0  0  0  0  0  0  0  0  0  0  0  0  0  0  0  0  0  0  0
    0  0  0  0  0  0  0  0  0  0  0  0  0  0  0  0  0  0  0  0
    0  0  0  0  0  0  0  0  0  0
    0  0  0  0  0  0  0  0  0  0  0  0  0  0  0  0  0  0  0  0
    0  0  0  0  0  0  0  0  0  0  0  0  0  0  0  0  0  0  0  0
    0  0  0  0  0  0  0  0  0  0
    0  0  0  0  0  0  0  0  0  0  0  0  0  0  0  0  0  0  0  0
    0  0  0  0  0  0  0  0  0  0  0  0  0  0  0  0  0  0  0  0
    0  0  0  0  0  0  0  0  0  0
    0  0  0  0  0  0  0  0  0  0  0  0  0  0  0  0  0  0  0  0
    0  0  0  0  0  0  0  0  0  0  0  0  0  0  0  0  0  0  0  0
    0  0  0  0  0  0  0  0  0  0
    0  0  0  0  0  0  0  0  0  0  0  0  0  0  0  0  0  0  0  0
    0  0  0  0  0  0  0  0  0  0  0  0  0  0  0  0  0  0  0  0
    0  0  0  0  0  0  0  0  0  0
    0  0  0  0  0  0  0  0  0  0  0  0  0  0  0  0  0  0  0  0
    0  0  0  0  0  0  0  0  0  0  0  0  0  0  0  0  0  0  0  0
    0  0  0  0  0  0  0  0  0  0
    0  0  0  0  0  0  0  0  0  0  0  0  0  0  0  0  0  0  0  0
    0  0  0  0  0  0  0  0  0  0  0  0  0  0  0  0  0  0  0  0
    0  0  0  0  0  0  0  0  0  0
    0  0  0  0  0  0  0  0  0  0  0  0  0  0  0  0  0  0  0  0
    0  0  0  0  0  0  0  0  0  0  0  0  0  0  0  0  0  0  0  0
    0  0  0  0  0  0  0  0  0  0
    0  0  0  0  0  0  0  0  0  0  0  0  0  0  0  0  0  0  0  0
    0  0  0  0  0  0  0  0  0  0  0  0  0  0  0  0  0  0  0  0
    0  0  0  0  0  0  0  0  0  0
    0  0  0  0  0  0  0  0  0  0  0  0  0  0  0  0  0  0  0  0
    0  0  0  0  0  0  0  0  0  0  0  0  0  0  0  0  0  0  0  0
    0  0  0  0  0  0  0  0  0  0
    0  0  0  0  0  0  0  0  0  0  0  0  0  0  0  0  0  0  0  0
    0  0  0  0  0  0  0  0  0  0  0  0  0  0  0  0  0  0  0  0
    0  0  0  0  0  0  0  0  0  0
    0  0  0  0  0  0  0  0  0  0  0  0  0  0  0  0  0  0  0  0
    0  0  0  0  0  0  0  0  0  0  0  0  0  0  0  0  0  0  0  0
    0  0  0  0  0  0  0  0  0  0
    0  0  0  0  0  0  0  0  0  0  0  0  0  0  0  0  0  0  0  0
    0  0  0  0  0  0  0  0  0  0  0  0  0  0  0  0  0  0  0  0
    0  0  0  0  0  0  0  0  0  0
    0  0  0  0  0  0  0  0  0  0  0  0  0  0  0  0  0  0  0  0
    0  0  0  0  0  0  0  0  0  0  0  0  0  0  0  0  0  0  0  0
    0  0  0  0  0  0  0  0  0  0
    0  0  0  0  0  0  0  0  0  0  0  0  0  0  0  0  0  0  0  0
    0  0  0  0  0  0  0  0  0  0  0  0  0  0  0  0  0  0  0  0
    0  0  0  0  0  0  0  0  0  0
    0  0  0  0  0  0  0  0  0  0  0  0  0  0  0  0  0  0  0  0
    0  0  0  0  0  0  0  0  0  0  0  0  0  0  0  0  0  0  0  0
    0  0  0  0  0  0  0  0  0  0
    0  0  0  0  0  0  0  0  0  0  0  0  0  0  0  0  0  0  0  0
    0  0  0  0  0  0  0  0  0  0  0  0  0  0  0  0  0  0  0  0
    0  0  0  0  0  0  0  0  0  0
    0  0  0  0  0  0  0  0  0  0  0  0  0  0  0  0  0  0  0  0
    0  0  0  0  0  0  0  0  0  0  0  0  0  0  0  0  0  0  0  0
    0  0  0  0  0  0  0  0  0  0
    0  0  0  0  0  0  0  0  0  0  0  0  0  0  0  0  0  0  0  0
    0  0  0  0  0  0  0  0  0  0  0  0  0  0  0  0  0  0  0  0
    0  0  0  0  0  0  0  0  0  0
    0  0  0  0  0  0  0  0  0  0  0  0  0  0  0  0  0  0  0  0
    0  0  0  0  0  0  0  0  0  0  0  0  0  0  0  0  0  0  0  0
    0  0  0  0  0  0  0  0  0  0
    0  0  0  0  0  0  0  0  0  0  0  0  0  0  0  0  0  0  0  0
    0  0  0  0  0  0  0  0  0  0  0  0  0  0  0  0  0  0  0  0
    0  0  0  0  0  0  0  0  0  0
    0  0  0  0  0  0  0  0  0  0  0  0  0  0  0  0  0  0  0  0
    0  0  0  0  0  0  0  0  0  0  0  0  0  0  0  0  0  0  0  0
    0  0  0  0  0  0  0  0  0  0
    0  0  0  0  0  0  0  0  0  0  0  0  0  0  0  0  0  0  0  0
    0  0  0  0  0  0  0  0  0  0  0  0  0  0  0  0  0  0  0  0
    0  0  0  0  0  0  0  0  0  0
    0  0  0  0  0  0  0  0  0  0  0  0  0  0  0  0  0  0  0  0
    0  0  0  0  0  0  0  0  0  0  0  0  0  0  0  0  0  0  0  0
    0  0  0  0  0  0  0  0  0  0
    0  0  0  0  0  0  0  0  0  0  0  0  0  0  0  0  0  0  0  0
    0  0  0  0  0  0  0  0  0  0  0  0  0  0  0  0  0  0  0  0
    0  0  0  0  0  0  0  0  0  0
    0  0  0  0  0  0  0  0  0  0  0  0  0  0  0  0  0  0  0  0
    0  0  0  0  0  0  0  0  0  0  0  0  0  0  0  0  0  0  0  0
    0  0  0  0  0  0  0  0  0  0
    0  0  0  0  0  0  0  0  0  0  0  0  0  0  0  0  0  0  0  0
    0  0  0  0  0  0  0  0  0  0  0  0  0  0  0  0  0  0  0  0
    0  0  0  0  0  0  0  0  0  0
    0  0  0  0  0  0  0  0  0  0  0  0  0  0  0  0  0  0  0  0
    0  0  0  0  0  0  0  0  0  0  0  0  0  0  0  0  0  0  0  0
    0  0  0  0  0  0  0  0  0  0
    0  0  0  0  0  0  0  0  0  0  0  0  0  0  0  0  0  0  0  0
    0  0  0  0  0  0  0  0  0  0  0  0  0  0  0  0  0  0  0  0
    0  0  0  0  0  0  0  0  0  0
    0  0  0  0  0  0  0  0  0  0  0  0  0  0  0  0  0  0  0  0
    0  0  0  0  0  0  0  0  0  0  0  0  0  0  0  0  0  0  0  0
    0  0  0  0  0  0  0  0  0  0
    0  0  0  0  0  0  0  0  0  0  0  0  0  0  0  0  0  0  0  0
    0  0  0  0  0  0  0  0  0  0  0  0  0  0  0  0  0  0  0  0
    0  0  0  0  0  0  0  0  0  0
    0  0  0  0  0  0  0  0  0  0  0  0  0  0  0  0  0  0  0  0
    0  0  0  0  0  0  0  0  0  0  0  0  0  0  0  0  0  0  0  0
    0  0  0  0  0  0  0  0  0  0
    0  0  0  0  0  0  0  0  0  0  0  0  0  0  0  0  0  0  0  0
    0  0  0  0  0  0  0  0  0  0  0  0  0  0  0  0  0  0  0  0
    0  0  0  0  0  0  0  0  0  0
    0  0  0  0  0  0  0  0  0  0  0  0  0  0  0  0  0  0  0  0
    0  0  0  0  0  0  0  0  0  0  0  0  0  0  0  0  0  0  0  0
    0  0  0  0  0  0  0  0  0  0
    0  0  0  0  0  0  0  0  0  0  0  0  0  0  0  0  0  0  0  0
    0  0  0  0  0  0  0  0  0  0  0  0  0  0  0  0  0  0  0  0
    0  0  0  0  0  0  0  0  0  0
    0  0  0  0  0  0  0  0  0  0  0  0  0  0  0  0  0  0  0  0
    0  0  0  0  0  0  0  0  0  0  0  0  0  0  0  0  0  0  0  0
    0  0  0  0  0  0  0  0  0  0
    0  0  0  0  0  0  0  0  0  0  0  0  0  0  0  0  0  0  0  0
    0  0  0  0  0  0  0  0  0  0  0  0  0  0  0  0  0  0  0  0
    0  0  0  0  0  0  0  0  0  0
    0  0  0  0  0  0  0  0  0  0  0  0  0  0  0  0  0  0  0  0
    0  0  0  0  0  0  0  0  0  0  0  0  0  0  0  0  0  0  0  0
    0  0  0  0  0  0  0  0  0  0
    0  0  0  0  0  0  0  0  0  0  0  0  0  0  0  0  0  0  0  0
    0  0  0  0  0  0  0  0  0  0  0  0  0  0  0  0  0  0  0  0
    0  0  0  0  0  0  0  0  0  0
    0  0  0  0  0  0  0  0  0  0  0  0  0  0  0  0  0  0  0  0
    0  0  0  0  0  0  0  0  0  0  0  0  0  0  0  0  0  0  0  0
    0  0  0  0  0  0  0  0  0  0
    0  0  0  0  0  0  0  0  0  0  0  0  0  0  0  0  0  0  0  0
    0  0  0  0  0  0  0  0  0  0  0  0  0  0  0  0  0  0  0  0
    0  0  0  0  0  0  0  0  0  0
    0  0  0  0  0  0  0  0  0  0  0  0  0  0  0  0  0  0  0  0
    0  0  0  0  0  0  0  0  0  0  0  0  0  0  0  0  0  0  0  0
    0  0  0  0  0  0  0  0  0  0
    0  0  0  0  0  0  0  0  0  0  0  0  0  0  0  0  0  0  0  0
    0  0  0  0  0  0  0  0  0  0  0  0  0  0  0  0  0  0  0  0
    0  0  0  0  0  0  0  0  0  0
    0  0  0  0  0  0  0  0  0  0  0  0  0  0  0  0  0  0  0  0
    0  0  0  0  0  0  0  0  0  0  0  0  0  0  0  0  0  0  0  0
    0  0  0  0  0  0  0  0  0  0
    0  0  0  0  0  0  0  0  0  0  0  0  0  0  0  0  0  0  0  0
    0  0  0  0  0  0  0  0  0  0  0  0  0  0  0  0  0  0  0  0
    0  0  0  0  0  0  0  0  0  0
    0  0  0  0  0  0  0  0  0  0  0  0  0  0  0  0  0  0  0  0
    0  0  0  0  0  0  0  0  0  0  0  0  0  0  0  0  0  0  0  0
    0  0  0  0  0  0  0  0  0  0
    0  0  0  0  0  0  0  0  0  0  0  0  0  0  0  0  0  0  0  0
    0  0  0  0  0  0  0  0  0  0  0  0  0  0  0  0  0  0  0  0
    0  0  0  0  0  0  0  0  0  0
    0  0  0  0  0  0  0  0  0  0  0  0  0  0  0  0  0  0  0  0
    0  0  0  0  0  0  0  0  0  0  0  0  0  0  0  0  0  0  0  0
    0  0  0  0  0  0  0  0  0  0
    0  0  0  0  0  0  0  0  0  0  0  0  0  0  0  0  0  0  0  0
    0  0  0  0  0  0  0  0  0  0  0  0  0  0  0  0  0  0  0  0
    0  0  0  0  0  0  0  0  0  0
    0  0  0  0  0  0  0  0  0  0  0  0  0  0  0  0  0  0  0  0
    0  0  0  0  0  0  0  0  0  0  0  0  0  0  0  0  0  0  0  0
    0  0  0  0  0  0  0  0  0  0
    0  0  0  0  0  0  0  0  0  0  0  0  0  0  0  0  0  0  0  0
    0  0  0  0  0  0  0  0  0  0  0  0  0  0  0  0  0  0  0  0
    0  0  0  0  0  0  0  0  0  0
    0  0  0  0  0  0  0  0  0  0  0  0  0  0  0  0  0  0  0  0
    0  0  0  0  0  0  0  0  0  0  0  0  0  0  0  0  0  0  0  0
    0  0  0  0  0  0  0  0  0  0
    0  0  0  0  0  0  0  0  0  0  0  0  0  0  0  0  0  0  0  0
    0  0  0  0  0  0  0  0  0  0  0  0  0  0  0  0  0  0  0  0
    0  0  0  0  0  0  0  0  0  0
    0  0  0  0  0  0  0  0  0  0  0  0  0  0  0  0  0  0  0  0
    0  0  0  0  0  0  0  0  0  0  0  0  0  0  0  0  0  0  0  0
    0  0  0  0  0  0  0  0  0  0
    0  0  0  0  0  0  0  0  0  0  0  0  0  0  0  0  0  0  0  0
    0  0  0  0  0  0  0  0  0  0  0  0  0  0  0  0  0  0  0  0
    0  0  0  0  0  0  0  0  0  0
  k
    INTERNAL  FACTOR  1.0
           0.90507465       0.66122016       0.56421441       0.82985196       0.71055325       0.97600610       0.76821153       0.54847687       0.72613637       0.47719079       0.54432270       0.45627046       0.62795539       1.60459349       1.27749297       1.04715808       0.39561323       0.54979842       0.70246734       1.37988538
         1.47306951       1.07855301       1.55439867       1.04951275       0.75132776       0.60790552       0.71723535       0.53322211       0.57804532       0.69314171       0.80800681       0.60107177       0.53990167       0.27646153       0.51899311       0.30563280       0.33154140       0.40868512       0.33298674       0.22030908
         0.21879268       0.23044232       0.42928013       0.34027304       0.35970448       0.27226319       0.21732682       0.28937399       0.40184832       0.30748708
         0.49328565       0.47983093       0.36063804       0.46266537       0.62961587       0.84123260       0.79029035       0.89845101       0.66485894       0.71661468       0.77852457       0.84646044       0.71328931       1.54903004       2.09543070       0.82102384       0.47744639       0.50389497       1.24520452       1.22622851
         2.55493400       2.09584935       1.68238592       1.26637699       0.95775977       0.69023668       1.01197120       0.79277453       1.23341107       1.27032491       1.26869435       0.88326835       0.48774442       0.39149180       0.30040507       0.36372329       0.41625058       0.30451552       0.25436406       0.16090579
         0.11106589       0.09899693       0.18184714       0.25694835       0.27350691       0.14776517       0.36067578       0.20395289       0.26761235       0.32735899
         0.27448616       0.38467627       0.47909991       0.50183310       0.39454677       0.61064362       0.70079309       1.43687090       1.72674047       1.71678674       0.96089537       1.29851366       1.45652350       1.70558191       1.63199800       2.37817953       0.90846215       0.84712815       1.19014952       1.82316300
         2.80357463       3.42929889       2.45383442       1.83165721       1.03724037       1.08363041       1.12299449       1.22750212       1.20295295       1.20715997       1.60264490       1.47878385       0.71659500       0.27663450       0.25875977       0.18122820       0.43791373       0.29250696       0.14046149       0.19196161
         0.09101235       0.08115876       0.10418360       0.13723357       0.18863665       0.15713023       0.11625471       0.23144458       0.24810943       0.20340366
         0.36175495       0.50272105       0.77308733       0.54215079       0.42987067       0.50176551       0.87279930       1.28243237       1.67599298       2.13766847       1.16006370       0.97856318       0.84610619       1.05331690       1.90095234       1.60723749       1.66405052       1.02766748       0.87550884       2.08323784
         2.57033331       2.19848524       1.84530564       1.52731784       1.72290418       0.85071631       0.89930738       0.70365280       0.76848426       0.86380949       0.85013043       0.69031658       0.49770400       0.37108995       0.31471948       0.40048133       0.20289892       0.28622244       0.29204904       0.15742497
         0.13067403       0.10608831       0.08804535       0.10182499       0.09379532       0.10968828       0.14670736       0.08366496       0.12938052       0.26290788
         0.59284686       0.72532110       0.71489310       0.73461851       0.50077914       0.81392396       0.88006900       1.14753725       1.38635596       1.51712871       1.19876992       1.14633337       1.13542712       1.93772462       2.11015304       1.09192358       1.98595491       1.06033683       0.98851497       1.23909379
         1.48402220       2.77275376       2.78691467       2.36489427       1.89862194       1.25394584       0.79008120       0.84031336       1.02870769       0.79310985       0.58411396       0.45158781       0.55327464       0.46433843       0.40261583       0.15677786       0.22174747       0.33687814       0.26730434       0.26131345
         0.15346936       0.20577234       0.11759679       0.08294494       0.10146148       0.10544824       0.17130436       0.12361971       0.13482270       0.32130728
         0.42231805       1.05667354       0.97818864       0.87430074       0.79994924       1.21512541       1.44163889       1.77804526       1.09672912       0.99441210       1.14524503       1.64900043       1.89483684       1.28876815       1.70989321       1.07745992       1.61871791       1.15861464       0.61210745       0.71588805
         1.20063226       1.57371768       1.42979790       1.45427969       1.61087990       0.80590467       0.88670196       1.07880255       1.46817898       0.76597939       0.68013133       0.41133961       0.36196691       0.40787942       0.27114893       0.21987192       0.53609323       0.49971524       0.38969957       0.19539054
         0.18797590       0.20822576       0.12141424       0.08240112       0.10930192       0.09078209       0.30378099       0.28969944       0.27527934       0.50470869
         0.54851894       0.97398078       0.93186418       1.29743268       1.08579267       1.21855604       1.45659154       1.17349667       1.12825025       1.06346460       1.54925666       1.71523233       2.26028265       2.59821101       2.17114685       1.82169706       2.03070007       1.25096179       0.94474046       0.71322158
         1.10590918       2.04689271       1.97226933       2.12700229       1.41316722       0.94555574       1.07473396       0.69979687       1.12590376       0.96736097       0.67711951       0.49917625       0.40743780       0.38413752       0.47702375       0.37424303       0.37120395       0.70530658       0.65576539       0.22818320
         0.33212142       0.20320155       0.09940983       0.13773047       0.20743614       0.17360239       0.26905132       0.24828384       0.33893305       0.39021425
         0.67020144       0.81072379       0.81772770       0.71812837       0.65879809       1.09115011       0.78427289       1.30863980       1.98189545       1.26451109       1.47450507       2.15781702       2.39516849       2.92475574       1.49802890       1.93837421       2.39599400       1.25972391       0.69195047       0.92171718
         1.72476218       2.27147314       1.31337541       1.34506274       1.73409473       1.52081516       1.04892144       1.03454060       1.19069881       0.99230573       0.98039266       0.61922660       0.62940608       0.48715566       0.56354381       0.44787268       0.35686848       0.70994753       0.76827334       0.38375222
         0.34602175       0.23378867       0.12433787       0.27274364       0.18872411       0.20735918       0.22685965       0.24811061       0.28063750       0.30857543
         0.55088018       0.91452910       0.65677612       0.51262630       0.77663257       0.71711854       1.01298864       1.57223976       1.62340341       1.13664957       1.91357953       2.67291634       3.26151761       3.40070179       1.98829297       1.77773463       1.61575729       1.03053084       1.07806659       1.35445941
         1.74406978       1.99692651       1.47375595       2.07687109       2.45085976       1.82568305       1.27474154       0.87860202       1.05762388       1.56228741       0.80781885       0.44758432       0.52694494       0.41636243       0.74965349       0.77971303       0.80607252       1.07967490       0.80312052       0.37455781
         0.35685476       0.24348534       0.25080070       0.26657442       0.21600770       0.11039659       0.17146628       0.22702158       0.16358582       0.14639026
         0.84103153       0.85991135       0.83133446       0.82355991       0.73442016       1.05119537       1.83911128       1.14746257       1.16304421       1.11302553       2.15349732       3.00861444       2.92599091       3.04800889       1.99069785       0.87120073       1.75795211       1.67843914       1.49964767       2.17531646
         2.30079090       2.35956391       1.79732046       2.09644888       2.91459329       1.41532407       1.11679877       1.11330930       1.02595977       1.17140302       0.81041854       0.87560726       0.61334813       0.94587316       1.02557269       0.98150387       0.49739460       0.47572676       0.49937068       0.32723501
         0.33498559       0.33050999       0.28358660       0.29591227       0.20692257       0.22007116       0.27245190       0.30665894       0.26421131       0.19632773
         1.08171273       1.05794595       1.10356634       0.92035914       0.84891396       1.64552038       1.69797622       1.32816425       1.11103300       0.75988638       2.13558110       2.66358127       2.94321983       3.50466937       2.71070997       2.51381086       1.42343763       1.50230325       1.33115517       1.26925588
         2.22791762       1.94899363       1.95581046       3.26307536       2.18290282       1.51377651       1.58027116       1.41759952       0.77613338       0.94264245       1.46297014       0.66129961       0.59117714       0.68040978       0.58119135       0.39340592       0.36105937       0.30687044       0.31130604       0.29102578
         0.28256667       0.44041153       0.30627400       0.34489049       0.16734618       0.24284221       0.25983365       0.32172563       0.25792449       0.34889520
         0.85981849       1.18585552       1.32220911       1.80573746       1.73803160       1.80190914       1.32239645       1.19931851       0.87644780       0.80176652       1.04452687       1.95436586       2.44219575       3.14508442       3.45809330       2.19645730       2.28677846       1.59434366       1.56534900       1.43828651
         1.93608482       2.61037020       1.81673182       1.27478327       2.20564293       2.09733373       2.30798386       1.48566453       1.16086182       1.86979365       1.69363610       0.92710172       0.60876148       0.47183841       0.85696415       0.69366057       0.30359839       0.34199762       0.37085107       0.43840700
         0.38075245       0.32714800       0.28778053       0.32908916       0.16720841       0.12935719       0.19838214       0.21848119       0.44908129       0.30512451
         1.26086466       2.46604346       1.83807830       2.56679988       2.23335743       2.01977145       2.30309077       1.24186395       1.51865247       1.42731543       1.51390699       1.39662797       2.55761707       2.49655295       2.69060892       1.75438271       2.28154752       2.30706326       1.84934231       2.13298711
         2.86049184       2.54947451       1.58241987       1.60672879       2.11834583       2.87975153       2.24454023       1.97247728       1.42751230       1.39220121       0.96949127       1.18523120       0.75032036       0.39249692       0.64394992       0.41314239       0.25315720       0.52806711       0.47928004       0.68956130
         0.29285543       0.28090360       0.37243937       0.23668378       0.17300239       0.10078503       0.18152906       0.25122106       0.35859009       0.64469571
         1.28509804       1.64551531       2.01556141       2.59210767       2.02713628       3.04688241       1.91500392       1.60437098       2.16537810       2.09658014       2.47510563       2.31301750       2.26405865       2.31137701       2.79723153       1.87247456       3.46320606       2.01695517       2.61739688       3.46010911
         3.93893891       3.27358120       3.36960585       2.10020728       2.24455776       1.45401172       1.40649167       1.96614173       1.36576887       1.06330928       1.20803693       0.90002043       0.42354705       0.50684661       0.43087473       0.46106304       0.39672445       0.53154440       0.40779994       0.53134152
         0.22702369       0.23335904       0.23820213       0.18935268       0.19885440       0.19188506       0.15440159       0.33406222       0.31011290       0.29374645
         1.14293181       1.36299208       1.65241643       1.82574060       2.10159467       3.71141705       3.87476592       2.15151924       2.02648055       2.27921751       3.33694830       5.71783746       1.96979340       2.39704881       2.82258594       2.05216923       3.63603747       2.80163951       3.22533587       4.00507493
         3.89417435       5.00409334       2.87995900       3.34590463       1.84770487       1.20185988       1.11231863       1.32102692       1.10628517       1.13147855       1.18603656       1.10528397       1.16961029       0.73885354       0.36441016       0.26394537       0.34865093       0.37799619       0.61513634       0.31816936
         0.44360374       0.32035414       0.34716982       0.26861424       0.18213819       0.20651850       0.19011920       0.19558117       0.33770781       0.34035550
         1.94642665       2.21149879       1.81645354       1.46911358       2.34919663       2.15309132       1.93448003       2.41970090       1.82794689       2.06769522       2.21311427       2.26898062       3.02159487       3.35350706       3.08388054       2.25500643       3.31148880       3.36456503       2.88483757       4.31236267
         3.43101459       3.24450085       5.67796419       2.22052660       1.88309793       1.24677637       1.10040039       1.58079078       1.02111498       0.79578201       1.33977501       1.18885054       1.56814333       0.75702511       0.24769897       0.35317902       0.21071563       0.35972093       0.33923967       0.51940653
         0.45885084       0.51768051       0.46246403       0.30407440       0.25990382       0.20640255       0.23603178       0.25364361       0.25266285       0.38919656
         2.72033721       3.13942816       2.27666369       2.04378365       1.99356593       3.06566111       3.46643510       2.13483516       1.75100445       2.25733727       1.75002372       2.68851800       2.33186800       2.12092134       3.84023732       5.94604804       5.02271482       3.45614816       4.00784380       3.13768081
         2.75471113       3.04161726       3.67530224       1.58416453       1.73371396       1.71139511       1.26030873       1.32319413       0.98459584       1.32822444       0.91290049       1.29960669       1.02953099       0.80764191       0.38659710       0.43881895       0.28649494       0.33541475       0.49934658       0.34319299
         0.73451429       0.47239176       0.63817342       0.23676424       0.20857702       0.23199359       0.22926778       0.35522737       0.33305951       0.35458142
         5.07273634       3.93150265       3.07726440       3.02383480       2.56918130       2.85648646       3.26469132       3.63284104       2.47967913       1.72613240       1.72263211       2.19397426       2.11503529       2.64171109       3.05406555       4.01064874       5.41981785       2.65977396       4.56614123       3.58516371
         2.09650794       1.90547895       1.97426506       1.64972524       1.84062117       1.32007034       1.37919246       1.03405724       1.05160669       1.01339841       0.95453600       1.00783937       1.00597412       0.92371079       0.53094129       0.45884535       0.36472754       0.44072693       0.57376594       0.55743993
         0.65354138       1.26819026       0.74333495       0.46914178       0.23665581       0.23947426       0.17539697       0.18337194       0.33621753       0.26982560
         4.73633154       4.29905539       3.45097187       3.21517799       2.60251325       3.27943970       5.38074407       3.84243487       2.58396219       2.48412361       2.48937038       1.90460084       2.89822778       2.03719208       1.15373049       1.37226929       2.51396573       2.54057292       3.26130936       3.01998040
         3.15227241       2.68421175       1.79060231       1.56154066       1.09395726       0.85609996       0.90873822       1.00330538       1.03767754       1.04338676       1.37680391       1.95149616       1.11701858       0.75100138       0.51858305       0.46026843       0.35961764       0.39925029       0.41297950       0.64161154
         0.95060147       0.88084010       0.70390114       0.51753378       0.50244525       0.18841877       0.19338478       0.14481797       0.17202640       0.25215720
         5.31986715       4.72556790       2.93141984       2.41638587       2.63106668       2.63709534       2.20147268       2.36628258       1.73820876       4.01189057       3.12064101       2.54805598       2.28934884       1.41556522       0.71626887       1.15372036       1.73796228       3.21998550       2.69194728       1.91346424
         1.97554165       2.24260551       1.71789438       1.11140595       0.67090168       0.71697053       0.60223165       0.98518481       1.13632113       1.17092396       1.41400804       1.59384433       1.18156677       0.69574365       0.64040800       0.40506804       0.48756159       0.64175216       0.57260488       0.92149171