BEGIN options
END options

BEGIN griddata
  icelltype
    INTERNAL  FACTOR  1
      0  0  0  0  0  0  0  0  0  0  0  0  0  0  0  0  0  0  0  0
    0  0  0  0  0  0  0  0  0  0  0  0  0  0  0  0  0  0  0  0
    0  0  0  0  0  0  0  0  0  0
    0  0  0  0  0  0  0  0  0  0  0  0  0  0  0  0  0  0  0  0
    0  0  0  0  0  0  0  0  0  0  0  0  0  0  0  0  0  0  0  0
    0  0  0  0  0  0  0  0  0  0
    0  0  0  0  0  0  0  0  0  0  0  0  0  0  0  0  0  0  0  0
    0  0  0  0  0  0  0  0  0  0  0  0  0  0  0  0  0  0  0  0
    0  0  0  0  0  0  0  0  0  0
    0  0  0  0  0  0  0  0  0  0  0  0  0  0  0  0  0  0  0  0
    0  0  0  0  0  0  0  0  0  0  0  0  0  0  0  0  0  0  0  0
    0  0  0  0  0  0  0  0  0  0
    0  0  0  0  0  0  0  0  0  0  0  0  0  0  0  0  0  0  0  0
    0  0  0  0  0  0  0  0  0  0  0  0  0  0  0  0  0  0  0  0
    0  0  0  0  0  0  0  0  0  0
    0  0  0  0  0  0  0  0  0  0  0  0  0  0  0  0  0  0  0  0
    0  0  0  0  0  0  0  0  0  0  0  0  0  0  0  0  0  0  0  0
    0  0  0  0  0  0  0  0  0  0
    0  0  0  0  0  0  0  0  0  0  0  0  0  0  0  0  0  0  0  0
    0  0  0  0  0  0  0  0  0  0  0  0  0  0  0  0  0  0  0  0
    0  0  0  0  0  0  0  0  0  0
    0  0  0  0  0  0  0  0  0  0  0  0  0  0  0  0  0  0  0  0
    0  0  0  0  0  0  0  0  0  0  0  0  0  0  0  0  0  0  0  0
    0  0  0  0  0  0  0  0  0  0
    0  0  0  0  0  0  0  0  0  0  0  0  0  0  0  0  0  0  0  0
    0  0  0  0  0  0  0  0  0  0  0  0  0  0  0  0  0  0  0  0
    0  0  0  0  0  0  0  0  0  0
    0  0  0  0  0  0  0  0  0  0  0  0  0  0  0  0  0  0  0  0
    0  0  0  0  0  0  0  0  0  0  0  0  0  0  0  0  0  0  0  0
    0  0  0  0  0  0  0  0  0  0
    0  0  0  0  0  0  0  0  0  0  0  0  0  0  0  0  0  0  0  0
    0  0  0  0  0  0  0  0  0  0  0  0  0  0  0  0  0  0  0  0
    0  0  0  0  0  0  0  0  0  0
    0  0  0  0  0  0  0  0  0  0  0  0  0  0  0  0  0  0  0  0
    0  0  0  0  0  0  0  0  0  0  0  0  0  0  0  0  0  0  0  0
    0  0  0  0  0  0  0  0  0  0
    0  0  0  0  0  0  0  0  0  0  0  0  0  0  0  0  0  0  0  0
    0  0  0  0  0  0  0  0  0  0  0  0  0  0  0  0  0  0  0  0
    0  0  0  0  0  0  0  0  0  0
    0  0  0  0  0  0  0  0  0  0  0  0  0  0  0  0  0  0  0  0
    0  0  0  0  0  0  0  0  0  0  0  0  0  0  0  0  0  0  0  0
    0  0  0  0  0  0  0  0  0  0
    0  0  0  0  0  0  0  0  0  0  0  0  0  0  0  0  0  0  0  0
    0  0  0  0  0  0  0  0  0  0  0  0  0  0  0  0  0  0  0  0
    0  0  0  0  0  0  0  0  0  0
    0  0  0  0  0  0  0  0  0  0  0  0  0  0  0  0  0  0  0  0
    0  0  0  0  0  0  0  0  0  0  0  0  0  0  0  0  0  0  0  0
    0  0  0  0  0  0  0  0  0  0
    0  0  0  0  0  0  0  0  0  0  0  0  0  0  0  0  0  0  0  0
    0  0  0  0  0  0  0  0  0  0  0  0  0  0  0  0  0  0  0  0
    0  0  0  0  0  0  0  0  0  0
    0  0  0  0  0  0  0  0  0  0  0  0  0  0  0  0  0  0  0  0
    0  0  0  0  0  0  0  0  0  0  0  0  0  0  0  0  0  0  0  0
    0  0  0  0  0  0  0  0  0  0
    0  0  0  0  0  0  0  0  0  0  0  0  0  0  0  0  0  0  0  0
    0  0  0  0  0  0  0  0  0  0  0  0  0  0  0  0  0  0  0  0
    0  0  0  0  0  0  0  0  0  0
    0  0  0  0  0  0  0  0  0  0  0  0  0  0  0  0  0  0  0  0
    0  0  0  0  0  0  0  0  0  0  0  0  0  0  0  0  0  0  0  0
    0  0  0  0  0  0  0  0  0  0
    0  0  0  0  0  0  0  0  0  0  0  0  0  0  0  0  0  0  0  0
    0  0  0  0  0  0  0  0  0  0  0  0  0  0  0  0  0  0  0  0
    0  0  0  0  0  0  0  0  0  0
    0  0  0  0  0  0  0  0  0  0  0  0  0  0  0  0  0  0  0  0
    0  0  0  0  0  0  0  0  0  0  0  0  0  0  0  0  0  0  0  0
    0  0  0  0  0  0  0  0  0  0
    0  0  0  0  0  0  0  0  0  0  0  0  0  0  0  0  0  0  0  0
    0  0  0  0  0  0  0  0  0  0  0  0  0  0  0  0  0  0  0  0
    0  0  0  0  0  0  0  0  0  0
    0  0  0  0  0  0  0  0  0  0  0  0  0  0  0  0  0  0  0  0
    0  0  0  0  0  0  0  0  0  0  0  0  0  0  0  0  0  0  0  0
    0  0  0  0  0  0  0  0  0  0
    0  0  0  0  0  0  0  0  0  0  0  0  0  0  0  0  0  0  0  0
    0  0  0  0  0  0  0  0  0  0  0  0  0  0  0  0  0  0  0  0
    0  0  0  0  0  0  0  0  0  0
    0  0  0  0  0  0  0  0  0  0  0  0  0  0  0  0  0  0  0  0
    0  0  0  0  0  0  0  0  0  0  0  0  0  0  0  0  0  0  0  0
    0  0  0  0  0  0  0  0  0  0
    0  0  0  0  0  0  0  0  0  0  0  0  0  0  0  0  0  0  0  0
    0  0  0  0  0  0  0  0  0  0  0  0  0  0  0  0  0  0  0  0
    0  0  0  0  0  0  0  0  0  0
    0  0  0  0  0  0  0  0  0  0  0  0  0  0  0  0  0  0  0  0
    0  0  0  0  0  0  0  0  0  0  0  0  0  0  0  0  0  0  0  0
    0  0  0  0  0  0  0  0  0  0
    0  0  0  0  0  0  0  0  0  0  0  0  0  0  0  0  0  0  0  0
    0  0  0  0  0  0  0  0  0  0  0  0  0  0  0  0  0  0  0  0
    0  0  0  0  0  0  0  0  0  0
    0  0  0  0  0  0  0  0  0  0  0  0  0  0  0  0  0  0  0  0
    0  0  0  0  0  0  0  0  0  0  0  0  0  0  0  0  0  0  0  0
    0  0  0  0  0  0  0  0  0  0
    0  0  0  0  0  0  0  0  0  0  0  0  0  0  0  0  0  0  0  0
    0  0  0  0  0  0  0  0  0  0  0  0  0  0  0  0  0  0  0  0
    0  0  0  0  0  0  0  0  0  0
    0  0  0  0  0  0  0  0  0  0  0  0  0  0  0  0  0  0  0  0
    0  0  0  0  0  0  0  0  0  0  0  0  0  0  0  0  0  0  0  0
    0  0  0  0  0  0  0  0  0  0
    0  0  0  0  0  0  0  0  0  0  0  0  0  0  0  0  0  0  0  0
    0  0  0  0  0  0  0  0  0  0  0  0  0  0  0  0  0  0  0  0
    0  0  0  0  0  0  0  0  0  0
    0  0  0  0  0  0  0  0  0  0  0  0  0  0  0  0  0  0  0  0
    0  0  0  0  0  0  0  0  0  0  0  0  0  0  0  0  0  0  0  0
    0  0  0  0  0  0  0  0  0  0
    0  0  0  0  0  0  0  0  0  0  0  0  0  0  0  0  0  0  0  0
    0  0  0  0  0  0  0  0  0  0  0  0  0  0  0  0  0  0  0  0
    0  0  0  0  0  0  0  0  0  0
    0  0  0  0  0  0  0  0  0  0  0  0  0  0  0  0  0  0  0  0
    0  0  0  0  0  0  0  0  0  0  0  0  0  0  0  0  0  0  0  0
    0  0  0  0  0  0  0  0  0  0
    0  0  0  0  0  0  0  0  0  0  0  0  0  0  0  0  0  0  0  0
    0  0  0  0  0  0  0  0  0  0  0  0  0  0  0  0  0  0  0  0
    0  0  0  0  0  0  0  0  0  0
    0  0  0  0  0  0  0  0  0  0  0  0  0  0  0  0  0  0  0  0
    0  0  0  0  0  0  0  0  0  0  0  0  0  0  0  0  0  0  0  0
    0  0  0  0  0  0  0  0  0  0
    0  0  0  0  0  0  0  0  0  0  0  0  0  0  0  0  0  0  0  0
    0  0  0  0  0  0  0  0  0  0  0  0  0  0  0  0  0  0  0  0
    0  0  0  0  0  0  0  0  0  0
    0  0  0  0  0  0  0  0  0  0  0  0  0  0  0  0  0  0  0  0
    0  0  0  0  0  0  0  0  0  0  0  0  0  0  0  0  0  0  0  0
    0  0  0  0  0  0  0  0  0  0
    0  0  0  0  0  0  0  0  0  0  0  0  0  0  0  0  0  0  0  0
    0  0  0  0  0  0  0  0  0  0  0  0  0  0  0  0  0  0  0  0
    0  0  0  0  0  0  0  0  0  0
    0  0  0  0  0  0  0  0  0  0  0  0  0  0  0  0  0  0  0  0
    0  0  0  0  0  0  0  0  0  0  0  0  0  0  0  0  0  0  0  0
    0  0  0  0  0  0  0  0  0  0
    0  0  0  0  0  0  0  0  0  0  0  0  0  0  0  0  0  0  0  0
    0  0  0  0  0  0  0  0  0  0  0  0  0  0  0  0  0  0  0  0
    0  0  0  0  0  0  0  0  0  0
    0  0  0  0  0  0  0  0  0  0  0  0  0  0  0  0  0  0  0  0
    0  0  0  0  0  0  0  0  0  0  0  0  0  0  0  0  0  0  0  0
    0  0  0  0  0  0  0  0  0  0
    0  0  0  0  0  0  0  0  0  0  0  0  0  0  0  0  0  0  0  0
    0  0  0  0  0  0  0  0  0  0  0  0  0  0  0  0  0  0  0  0
    0  0  0  0  0  0  0  0  0  0
    0  0  0  0  0  0  0  0  0  0  0  0  0  0  0  0  0  0  0  0
    0  0  0  0  0  0  0  0  0  0  0  0  0  0  0  0  0  0  0  0
    0  0  0  0  0  0  0  0  0  0
    0  0  0  0  0  0  0  0  0  0  0  0  0  0  0  0  0  0  0  0
    0  0  0  0  0  0  0  0  0  0  0  0  0  0  0  0  0  0  0  0
    0  0  0  0  0  0  0  0  0  0
    0  0  0  0  0  0  0  0  0  0  0  0  0  0  0  0  0  0  0  0
    0  0  0  0  0  0  0  0  0  0  0  0  0  0  0  0  0  0  0  0
    0  0  0  0  0  0  0  0  0  0
    0  0  0  0  0  0  0  0  0  0  0  0  0  0  0  0  0  0  0  0
    0  0  0  0  0  0  0  0  0  0  0  0  0  0  0  0  0  0  0  0
    0  0  0  0  0  0  0  0  0  0
    0  0  0  0  0  0  0  0  0  0  0  0  0  0  0  0  0  0  0  0
    0  0  0  0  0  0  0  0  0  0  0  0  0  0  0  0  0  0  0  0
    0  0  0  0  0  0  0  0  0  0
    0  0  0  0  0  0  0  0  0  0  0  0  0  0  0  0  0  0  0  0
    0  0  0  0  0  0  0  0  0  0  0  0  0  0  0  0  0  0  0  0
    0  0  0  0  0  0  0  0  0  0
    0  0  0  0  0  0  0  0  0  0  0  0  0  0  0  0  0  0  0  0
    0  0  0  0  0  0  0  0  0  0  0  0  0  0  0  0  0  0  0  0
    0  0  0  0  0  0  0  0  0  0
    0  0  0  0  0  0  0  0  0  0  0  0  0  0  0  0  0  0  0  0
    0  0  0  0  0  0  0  0  0  0  0  0  0  0  0  0  0  0  0  0
    0  0  0  0  0  0  0  0  0  0
    0  0  0  0  0  0  0  0  0  0  0  0  0  0  0  0  0  0  0  0
    0  0  0  0  0  0  0  0  0  0  0  0  0  0  0  0  0  0  0  0
    0  0  0  0  0  0  0  0  0  0
    0  0  0  0  0  0  0  0  0  0  0  0  0  0  0  0  0  0  0  0
    0  0  0  0  0  0  0  0  0  0  0  0  0  0  0  0  0  0  0  0
    0  0  0  0  0  0  0  0  0  0
    0  0  0  0  0  0  0  0  0  0  0  0  0  0  0  0  0  0  0  0
    0  0  0  0  0  0  0  0  0  0  0  0  0  0  0  0  0  0  0  0
    0  0  0  0  0  0  0  0  0  0
    0  0  0  0  0  0  0  0  0  0  0  0  0  0  0  0  0  0  0  0
    0  0  0  0  0  0  0  0  0  0  0  0  0  0  0  0  0  0  0  0
    0  0  0  0  0  0  0  0  0  0
    0  0  0  0  0  0  0  0  0  0  0  0  0  0  0  0  0  0  0  0
    0  0  0  0  0  0  0  0  0  0  0  0  0  0  0  0  0  0  0  0
    0  0  0  0  0  0  0  0  0  0
    0  0  0  0  0  0  0  0  0  0  0  0  0  0  0  0  0  0  0  0
    0  0  0  0  0  0  0  0  0  0  0  0  0  0  0  0  0  0  0  0
    0  0  0  0  0  0  0  0  0  0
    0  0  0  0  0  0  0  0  0  0  0  0  0  0  0  0  0  0  0  0
    0  0  0  0  0  0  0  0  0  0  0  0  0  0  0  0  0  0  0  0
    0  0  0  0  0  0  0  0  0  0
    0  0  0  0  0  0  0  0  0  0  0  0  0  0  0  0  0  0  0  0
    0  0  0  0  0  0  0  0  0  0  0  0  0  0  0  0  0  0  0  0
    0  0  0  0  0  0  0  0  0  0
    0  0  0  0  0  0  0  0  0  0  0  0  0  0  0  0  0  0  0  0
    0  0  0  0  0  0  0  0  0  0  0  0  0  0  0  0  0  0  0  0
    0  0  0  0  0  0  0  0  0  0
    0  0  0  0  0  0  0  0  0  0  0  0  0  0  0  0  0  0  0  0
    0  0  0  0  0  0  0  0  0  0  0  0  0  0  0  0  0  0  0  0
    0  0  0  0  0  0  0  0  0  0
    0  0  0  0  0  0  0  0  0  0  0  0  0  0  0  0  0  0  0  0
    0  0  0  0  0  0  0  0  0  0  0  0  0  0  0  0  0  0  0  0
    0  0  0  0  0  0  0  0  0  0
    0  0  0  0  0  0  0  0  0  0  0  0  0  0  0  0  0  0  0  0
    0  0  0  0  0  0  0  0  0  0  0  0  0  0  0  0  0  0  0  0
    0  0  0  0  0  0  0  0  0  0
    0  0  0  0  0  0  0  0  0  0  0  0  0  0  0  0  0  0  0  0
    0  0  0  0  0  0  0  0  0  0  0  0  0  0  0  0  0  0  0  0
    0  0  0  0  0  0  0  0  0  0
    0  0  0  0  0  0  0  0  0  0  0  0  0  0  0  0  0  0  0  0
    0  0  0  0  0  0  0  0  0  0  0  0  0  0  0  0  0  0  0  0
    0  0  0  0  0  0  0  0  0  0
    0  0  0  0  0  0  0  0  0  0  0  0  0  0  0  0  0  0  0  0
    0  0  0  0  0  0  0  0  0  0  0  0  0  0  0  0  0  0  0  0
    0  0  0  0  0  0  0  0  0  0
    0  0  0  0  0  0  0  0  0  0  0  0  0  0  0  0  0  0  0  0
    0  0  0  0  0  0  0  0  0  0  0  0  0  0  0  0  0  0  0  0
    0  0  0  0  0  0  0  0  0  0
    0  0  0  0  0  0  0  0  0  0  0  0  0  0  0  0  0  0  0  0
    0  0  0  0  0  0  0  0  0  0  0  0  0  0  0  0  0  0  0  0
    0  0  0  0  0  0  0  0  0  0
    0  0  0  0  0  0  0  0  0  0  0  0  0  0  0  0  0  0  0  0
    0  0  0  0  0  0  0  0  0  0  0  0  0  0  0  0  0  0  0  0
    0  0  0  0  0  0  0  0  0  0
    0  0  0  0  0  0  0  0  0  0  0  0  0  0  0  0  0  0  0  0
    0  0  0  0  0  0  0  0  0  0  0  0  0  0  0  0  0  0  0  0
    0  0  0  0  0  0  0  0  0  0
    0  0  0  0  0  0  0  0  0  0  0  0  0  0  0  0  0  0  0  0
    0  0  0  0  0  0  0  0  0  0  0  0  0  0  0  0  0  0  0  0
    0  0  0  0  0  0  0  0  0  0
    0  0  0  0  0  0  0  0  0  0  0  0  0  0  0  0  0  0  0  0
    0  0  0  0  0  0  0  0  0  0  0  0  0  0  0  0  0  0  0  0
    0  0  0  0  0  0  0  0  0  0
    0  0  0  0  0  0  0  0  0  0  0  0  0  0  0  0  0  0  0  0
    0  0  0  0  0  0  0  0  0  0  0  0  0  0  0  0  0  0  0  0
    0  0  0  0  0  0  0  0  0  0
    0  0  0  0  0  0  0  0  0  0  0  0  0  0  0  0  0  0  0  0
    0  0  0  0  0  0  0  0  0  0  0  0  0  0  0  0  0  0  0  0
    0  0  0  0  0  0  0  0  0  0
    0  0  0  0  0  0  0  0  0  0  0  0  0  0  0  0  0  0  0  0
    0  0  0  0  0  0  0  0  0  0  0  0  0  0  0  0  0  0  0  0
    0  0  0  0  0  0  0  0  0  0
    0  0  0  0  0  0  0  0  0  0  0  0  0  0  0  0  0  0  0  0
    0  0  0  0  0  0  0  0  0  0  0  0  0  0  0  0  0  0  0  0
    0  0  0  0  0  0  0  0  0  0
    0  0  0  0  0  0  0  0  0  0  0  0  0  0  0  0  0  0  0  0
    0  0  0  0  0  0  0  0  0  0  0  0  0  0  0  0  0  0  0  0
    0  0  0  0  0  0  0  0  0  0
    0  0  0  0  0  0  0  0  0  0  0  0  0  0  0  0  0  0  0  0
    0  0  0  0  0  0  0  0  0  0  0  0  0  0  0  0  0  0  0  0
    0  0  0  0  0  0  0  0  0  0
  k
    INTERNAL  FACTOR  1.0
           0.15022389       0.17315422       0.17928534       0.19103230       0.13034450       0.14810496       0.16173724       0.19074912       0.24865318       0.16728740       0.36057063       0.40800949       0.97144594       0.97067984       0.88484003       0.74971701       1.01811347       0.70103464       0.77177061       1.10779560
         1.19673277       1.00003385       1.31637399       2.01330415       1.81537681       2.71715680       3.36923569       3.18772595       3.92789540       2.83310772       2.30843018       1.81511911       1.10195126       1.06012593       0.61139853       0.59869816       0.20039198       0.16947115       0.10182515       0.12663985
         0.07529881       0.02913514       0.05427099       0.05227690       0.07767938       0.15643858       0.27649169       0.16510752       0.21000890       0.22521194
         0.17637970       0.23049541       0.22292945       0.31997715       0.24977349       0.14127464       0.20146288       0.20371574       0.26598605       0.25609269       0.33679896       0.50844195       0.74448351       0.94794678       0.87365553       0.66050091       0.76320003       0.94039042       1.66979125       1.31754433
         0.97744289       1.04493336       1.80734719       2.02707537       2.37065109       2.85289342       3.56809138       2.49727870       3.06378049       2.55130541       2.16513557       2.16007592       1.65786626       0.76018816       0.33643151       0.36344809       0.26164770       0.11808099       0.16963937       0.11283446
         0.07717815       0.05346486       0.05221693       0.06933762       0.07081066       0.08020407       0.20926948       0.25717570       0.17634080       0.24958252
         0.20931664       0.22529019       0.35089768       0.29909584       0.25818348       0.14997418       0.26471054       0.27505408       0.23383495       0.32038069       0.40668736       0.62032436       0.68136033       0.71246150       0.94196330       1.20587985       0.80431205       0.69571425       1.23706296       1.10122914
         1.28697490       1.19595568       1.35353450       2.06765061       2.39415110       2.48120711       2.04581849       2.73864482       1.91113430       1.77536530       1.62106452       1.32685798       1.23911953       0.68467736       0.31008511       0.24209294       0.21757904       0.17258379       0.14553596       0.06253064
         0.07659944       0.03183324       0.02417305       0.03506763       0.07751795       0.05499340       0.17156226       0.10780481       0.27342551       0.19656451
         0.22428566       0.21328128       0.28248398       0.27022400       0.22431085       0.23672229       0.30734654       0.22747668       0.42780917       0.34569041       0.63895643       1.12461245       0.99912300       0.62626024       0.86363339       0.81094591       0.74066733       1.02398877       1.28674990       1.24524064
         1.28884334       1.15333371       1.08883491       1.38476738       2.41719566       2.61291273       1.61082730       2.32420986       1.90270200       1.06621143       0.95818834       1.01097155       1.03033817       0.87463738       0.56465996       0.25522129       0.19001254       0.14920329       0.13121971       0.14198773
         0.09954196       0.04913483       0.06957681       0.06981071       0.10719706       0.17602674       0.17544907       0.22040543       0.25179333       0.27747995
         0.17673772       0.22078260       0.32756257       0.33946202       0.45073779       0.31746219       0.35678243       0.42655247       0.58925510       0.61010614       1.03195975       1.21354395       1.67068922       1.06787705       0.70220015       1.08359927       0.90221106       0.90073510       1.72436244       1.48229835
         1.84327840       1.19566909       0.71084557       1.63975173       1.21237012       1.34869270       1.83373242       2.01318511       1.66515765       0.93871561       0.75069258       0.63962882       0.82734888       0.44458732       0.44368419       0.52740308       0.33506656       0.24676918       0.15401903       0.15941454
         0.13526941       0.10747185       0.10061087       0.09247162       0.12590979       0.09584792       0.19309627       0.29302559       0.38961201       0.57034972
         0.28769906       0.32819774       0.33080042       0.50426789       0.38185643       0.65024579       0.53844303       0.53744260       0.69150423       0.87655313       1.14524511       1.32695532       2.05625380       1.39750601       0.69993835       1.05268872       0.72967465       0.50599455       0.69680711       1.36157954
         1.39879516       0.78588528       0.74186590       1.03247823       0.58046969       0.80590470       1.28245433       1.26248305       0.97377720       0.83069553       0.65785772       0.73793507       0.93337594       0.66766108       0.55243456       0.38431409       0.25161746       0.18328180       0.24672863       0.19179089
         0.18797594       0.23052563       0.20672257       0.22680208       0.17197291       0.22277005       0.23789289       0.38776320       0.35697134       0.37652167
         0.60529334       0.65422479       0.66701192       0.47637662       0.71584308       0.73758794       0.82312059       1.11736034       0.64206529       1.05421872       1.46033567       1.35855137       1.56774244       1.77443906       1.34633860       0.87513631       0.68358143       0.81050179       0.82356508       0.87393099
         0.83526909       0.52683574       0.57334346       0.54538461       0.64724161       0.68926323       0.78452276       0.93758685       1.29485498       1.43091897       1.76480762       1.04654145       1.18346415       0.56033491       0.54831689       0.31504925       0.20508003       0.14127836       0.24858612       0.21185613
         0.12924502       0.13590702       0.25201291       0.27064001       0.17708959       0.33432084       0.36750233       0.78805469       0.83432261       0.92002349
         1.56076207       1.17670811       0.75107278       0.91303854       0.62890118       0.52337869       0.58025860       1.07316281       0.62048708       0.78858176       1.30451840       1.49852696       0.79886255       1.05020473       2.10229686       1.37292070       0.74713684       0.99820776       0.92875484       0.80962073
         0.83930721       0.73101114       0.60154980       0.30395447       0.37159364       1.01404658       0.73959092       0.59400890       1.11402766       0.77946360       1.21139614       1.40856636       0.67027128       0.53833028       0.32374655       0.34725388       0.23103234       0.18117630       0.16921210       0.13896048
         0.12804280       0.12090137       0.22671418       0.28168513       0.41015243       0.30705621       0.65413558       0.65001646       1.12641511       1.13345104
         0.91790384       0.95566859       0.92749952       1.10916124       1.21630161       0.55123519       0.98897776       0.53470464       0.73050836       0.83566774       0.88705326       1.19720328       0.97514337       1.26983776       2.18283713       2.49890961       0.92618203       1.00779627       0.74419420       0.98500904
         0.75756090       0.84265673       0.48168517       0.40376855       0.34645683       0.59491272       0.97283251       0.60056544       0.55687263       1.10328234       1.04247873       1.08535144       1.10176912       0.64928429       0.44204492       0.46652228       0.42517710       0.23912240       0.19375914       0.14040938
         0.18358031       0.17450105       0.33283010       0.44862596       0.60597234       0.78172802       0.56759157       0.81133632       0.92845444       0.94408407
         1.00144220       0.93427494       0.58181229       0.65365176       0.98812573       0.81492450       0.99838792       0.67296437       0.97218625       1.10669245       1.34068348       1.16435064       1.14606890       1.04318598       2.48473139       2.36798659       1.10083754       1.06179486       0.59370769       0.80792451
         0.55665623       0.54870335       0.31362493       0.42836786       0.27128830       0.57292445       1.16096865       0.96662519       0.86143115       1.13739599       1.06639723       0.64493002       0.40978236       0.35073968       0.43514587       0.32608035       0.46023084       0.52669914       0.28571483       0.33136003
         0.32421175       0.29152064       0.31724556       0.55838098       0.69204101       0.84199396       0.66257896       0.62800553       0.96466035       1.32522892
         0.75297226       1.10474174       0.76885243       0.97602345       1.72424285       1.20293478       1.16959297       0.88110770       1.20436627       0.96460321       1.06089971       1.59454083       1.23630140       1.48993543       1.82558504       1.50712957       0.81683782       0.78479878       0.62321002       0.66231535
         0.70506770       0.65949021       0.38768066       0.37356660       0.54378367       0.44812687       0.51753445       0.78130487       0.86793050       0.88428377       0.79507634       0.47660527       0.24047684       0.22649378       0.25860482       0.22669424       0.43639441       0.55898595       0.60361609       0.38694915
         0.26033336       0.19704423       0.36095844       0.31569779       0.48872968       0.78207142       0.69459717       0.84324398       1.00384050       1.16125035
         0.59243738       0.57889694       0.54519969       0.54573206       0.79713022       1.24851673       1.62116455       1.26736009       2.24183864       2.27506348       1.67143459       2.38805219       1.97563762       1.12660034       1.50573302       1.08459821       0.71913468       0.56076761       0.49547945       0.51466263
         0.51503945       0.55306924       0.48424911       0.58156652       0.41606878       0.44720638       0.36418623       0.37542890       0.42183871       0.78370634       0.37679518       0.46229954       0.14317148       0.20737898       0.17977225       0.14808999       0.32791623       0.27495618       0.43502106       0.35547599
         0.29461053       0.31364212       0.34067585       0.32943891       0.49098006       1.12564571       0.77813021       0.73530334       1.08040836       1.18801152
         0.71063654       0.39487886       0.85813364       0.84122895       1.18034941       1.62297541       1.04899114       3.16472800       1.72870092       2.00290032       2.15162509       2.70848905       2.22463019       0.96217369       0.86338820       0.86749556       0.66200815       0.58864026       0.62573675       0.36513479
         0.52788309       0.58811063       0.71452125       0.82066624       0.47082212       0.26834365       0.30819823       0.43983861       0.75864645       0.34539405       0.43262960       0.31254727       0.19195926       0.20635046       0.15878482       0.18024436       0.30909241       0.36645772       0.32113240       0.33433031
         0.22421320       0.32619775       0.20178596       0.42884652       0.65921485       0.84928597       0.86134152       0.59116797       0.92772427       0.86610616
         0.66293679       0.93557447       0.98088920       0.98551865       1.01067941       1.61190892       2.10072766       1.45467737       1.86875330       1.42298768       1.72465812       1.31079064       2.04561784       1.59357795       0.81995860       0.78569066       0.64214267       0.40866157       0.39924474       0.39021670
         0.41262994       0.40477751       0.81820140       0.51172885       0.38402444       0.28533447       0.23559804       0.39188828       0.37146628       0.31741736       0.43586399       0.24233036       0.18390176       0.21482791       0.17834922       0.22429198       0.13563747       0.18483115       0.25683642       0.40101345
         0.35460815       0.29671410       0.24522190       0.33922519       0.39488286       0.47548153       0.52095494       0.58821360       0.64051603       0.47383705
         0.89412183       0.88849832       0.85979151       1.11664881       1.57749640       1.48497453       1.64106591       1.12480205       1.00548957       1.07765254       1.01449427       1.23096232       1.06042187       0.73545029       0.80435448       0.60802542       0.60031303       0.79256395       0.39867125       0.82462665
         0.51734015       0.45606356       0.48553123       0.42015861       0.27970846       0.38851504       0.49358874       0.24782249       0.19900375       0.13648938       0.17856017       0.28749424       0.22298326       0.18232030       0.18358888       0.28695844       0.18458051       0.18550331       0.18074376       0.36076466
         0.26435693       0.29770448       0.30835994       0.53558993       0.40308556       0.48158609       0.58800560       0.73838568       0.47587981       1.41408374
         0.56209964       1.12051911       1.29840419       1.53009892       2.71176599       2.11809430       1.32237265       0.77325819       0.87443572       1.12834644       0.94587464       1.35525584       1.15046550       0.79844081       0.45188072       0.65062504       0.48203367       0.52586869       0.47118060       0.43271341
         0.62698245       0.55614193       0.67795538       0.37167454       0.27639754       0.42902112       0.66729198       0.47112647       0.26332992       0.16536571       0.15151480       0.18647032       0.19323779       0.25259600       0.18526801       0.13397765       0.16525006       0.17725685       0.08764147       0.18103207
         0.29844314       0.29904140       0.28567046       0.31598164       0.49114003       0.59135505       0.74418407       0.86160511       0.53138674       0.88876212
         1.01587368       1.31274362       1.50486177       2.11322468       3.60522513       2.10441976       1.00017672       1.24637735       0.89464769       1.22303255       1.23476531       1.53889071       0.69291627       0.74968382       0.68371067       0.57498616       0.30249552       0.53010896       0.68048107       0.45024960
         0.65550986       0.50300553       0.64352673       0.42149505       0.54504127       0.52056148       0.93721517       0.39970693       0.14466586       0.12750953       0.14175376       0.23500048       0.23483223       0.28371622       0.28140371       0.22393474       0.14382130       0.17602130       0.17572226       0.16401257
         0.15484499       0.13957053       0.31859711       0.52482845       0.72165649       0.88529256       0.71889400       0.57428841       0.91132241       0.99860613
         0.90936405       1.02798502       1.01981108       1.36321945       1.60297925       1.47352885       0.88940994       1.36873755       1.42374215       1.23041531       0.91457720       1.10570092       1.09303463       0.75056517       0.51980077       0.44917376       0.37890839       0.47091923       0.53449264       0.76786725
         0.59383166       0.54225283       0.37443729       0.34954630       0.35710335       0.64740254       0.36584649       0.34836999       0.13073745       0.11237432       0.15505103       0.22985983       0.17216822       0.15765458       0.17737846       0.22353378       0.17868538       0.17778189       0.09061666       0.16151875
         0.13934887       0.09955072       0.32834133       0.55289073       0.83740588       1.02679767       0.74782259       0.89337075       0.83812342       0.97959761
         0.92365535       1.29129126       1.06557770       1.02009496       0.82998740       1.15192915       1.28009166       1.14968140       1.42639172       1.54834007       0.81102985       1.49495058       0.99905809       0.91520253       0.92562848       0.66765661       0.70984954       0.43555247       0.50288125       0.54691130
         0.78703521       0.50767252       0.59976262       0.44950298       0.41095440       0.66374042       0.48981198       0.30634301       0.31497007       0.20521820       0.12162824       0.16640682       0.12345740       0.11704741       0.19330210       0.18997247       0.22252620       0.21006813       0.20964963       0.18743146
         0.31072394       0.25794575       0.32328832       0.33396791       0.63598243       0.91466139       0.62484086       0.59814891       0.87885173       1.45382325
         0.60708894       0.75259545       1.17479620       1.26851580       1.27471856       1.19106745       1.16363890       1.15352132       1.08703749       1.11570215       1.14431615       0.80769000       1.24982461       1.07873302       1.04360920       0.42908512       0.41995526       0.48030542       0.86801078       0.82997082
         1.13437561       1.25935116       0.96164521       0.42068088       0.60604227       0.42477076       0.34633541       0.28814529       0.19439444       0.10960531       0.13057661       0.12338373       0.17614566       0.13948013       0.17254821       0.21516228       0.29228921       0.16073881       0.20458365       0.20744795