BEGIN options
END options

BEGIN griddata
  icelltype
    INTERNAL  FACTOR  1
      0  0  0  0  0  0  0  0  0  0  0  0  0  0  0  0  0  0  0  0
    0  0  0  0  0  0  0  0  0  0  0  0  0  0  0  0  0  0  0  0
    0  0  0  0  0  0  0  0  0  0
    0  0  0  0  0  0  0  0  0  0  0  0  0  0  0  0  0  0  0  0
    0  0  0  0  0  0  0  0  0  0  0  0  0  0  0  0  0  0  0  0
    0  0  0  0  0  0  0  0  0  0
    0  0  0  0  0  0  0  0  0  0  0  0  0  0  0  0  0  0  0  0
    0  0  0  0  0  0  0  0  0  0  0  0  0  0  0  0  0  0  0  0
    0  0  0  0  0  0  0  0  0  0
    0  0  0  0  0  0  0  0  0  0  0  0  0  0  0  0  0  0  0  0
    0  0  0  0  0  0  0  0  0  0  0  0  0  0  0  0  0  0  0  0
    0  0  0  0  0  0  0  0  0  0
    0  0  0  0  0  0  0  0  0  0  0  0  0  0  0  0  0  0  0  0
    0  0  0  0  0  0  0  0  0  0  0  0  0  0  0  0  0  0  0  0
    0  0  0  0  0  0  0  0  0  0
    0  0  0  0  0  0  0  0  0  0  0  0  0  0  0  0  0  0  0  0
    0  0  0  0  0  0  0  0  0  0  0  0  0  0  0  0  0  0  0  0
    0  0  0  0  0  0  0  0  0  0
    0  0  0  0  0  0  0  0  0  0  0  0  0  0  0  0  0  0  0  0
    0  0  0  0  0  0  0  0  0  0  0  0  0  0  0  0  0  0  0  0
    0  0  0  0  0  0  0  0  0  0
    0  0  0  0  0  0  0  0  0  0  0  0  0  0  0  0  0  0  0  0
    0  0  0  0  0  0  0  0  0  0  0  0  0  0  0  0  0  0  0  0
    0  0  0  0  0  0  0  0  0  0
    0  0  0  0  0  0  0  0  0  0  0  0  0  0  0  0  0  0  0  0
    0  0  0  0  0  0  0  0  0  0  0  0  0  0  0  0  0  0  0  0
    0  0  0  0  0  0  0  0  0  0
    0  0  0  0  0  0  0  0  0  0  0  0  0  0  0  0  0  0  0  0
    0  0  0  0  0  0  0  0  0  0  0  0  0  0  0  0  0  0  0  0
    0  0  0  0  0  0  0  0  0  0
    0  0  0  0  0  0  0  0  0  0  0  0  0  0  0  0  0  0  0  0
    0  0  0  0  0  0  0  0  0  0  0  0  0  0  0  0  0  0  0  0
    0  0  0  0  0  0  0  0  0  0
    0  0  0  0  0  0  0  0  0  0  0  0  0  0  0  0  0  0  0  0
    0  0  0  0  0  0  0  0  0  0  0  0  0  0  0  0  0  0  0  0
    0  0  0  0  0  0  0  0  0  0
    0  0  0  0  0  0  0  0  0  0  0  0  0  0  0  0  0  0  0  0
    0  0  0  0  0  0  0  0  0  0  0  0  0  0  0  0  0  0  0  0
    0  0  0  0  0  0  0  0  0  0
    0  0  0  0  0  0  0  0  0  0  0  0  0  0  0  0  0  0  0  0
    0  0  0  0  0  0  0  0  0  0  0  0  0  0  0  0  0  0  0  0
    0  0  0  0  0  0  0  0  0  0
    0  0  0  0  0  0  0  0  0  0  0  0  0  0  0  0  0  0  0  0
    0  0  0  0  0  0  0  0  0  0  0  0  0  0  0  0  0  0  0  0
    0  0  0  0  0  0  0  0  0  0
    0  0  0  0  0  0  0  0  0  0  0  0  0  0  0  0  0  0  0  0
    0  0  0  0  0  0  0  0  0  0  0  0  0  0  0  0  0  0  0  0
    0  0  0  0  0  0  0  0  0  0
    0  0  0  0  0  0  0  0  0  0  0  0  0  0  0  0  0  0  0  0
    0  0  0  0  0  0  0  0  0  0  0  0  0  0  0  0  0  0  0  0
    0  0  0  0  0  0  0  0  0  0
    0  0  0  0  0  0  0  0  0  0  0  0  0  0  0  0  0  0  0  0
    0  0  0  0  0  0  0  0  0  0  0  0  0  0  0  0  0  0  0  0
    0  0  0  0  0  0  0  0  0  0
    0  0  0  0  0  0  0  0  0  0  0  0  0  0  0  0  0  0  0  0
    0  0  0  0  0  0  0  0  0  0  0  0  0  0  0  0  0  0  0  0
    0  0  0  0  0  0  0  0  0  0
    0  0  0  0  0  0  0  0  0  0  0  0  0  0  0  0  0  0  0  0
    0  0  0  0  0  0  0  0  0  0  0  0  0  0  0  0  0  0  0  0
    0  0  0  0  0  0  0  0  0  0
    0  0  0  0  0  0  0  0  0  0  0  0  0  0  0  0  0  0  0  0
    0  0  0  0  0  0  0  0  0  0  0  0  0  0  0  0  0  0  0  0
    0  0  0  0  0  0  0  0  0  0
    0  0  0  0  0  0  0  0  0  0  0  0  0  0  0  0  0  0  0  0
    0  0  0  0  0  0  0  0  0  0  0  0  0  0  0  0  0  0  0  0
    0  0  0  0  0  0  0  0  0  0
    0  0  0  0  0  0  0  0  0  0  0  0  0  0  0  0  0  0  0  0
    0  0  0  0  0  0  0  0  0  0  0  0  0  0  0  0  0  0  0  0
    0  0  0  0  0  0  0  0  0  0
    0  0  0  0  0  0  0  0  0  0  0  0  0  0  0  0  0  0  0  0
    0  0  0  0  0  0  0  0  0  0  0  0  0  0  0  0  0  0  0  0
    0  0  0  0  0  0  0  0  0  0
    0  0  0  0  0  0  0  0  0  0  0  0  0  0  0  0  0  0  0  0
    0  0  0  0  0  0  0  0  0  0  0  0  0  0  0  0  0  0  0  0
    0  0  0  0  0  0  0  0  0  0
    0  0  0  0  0  0  0  0  0  0  0  0  0  0  0  0  0  0  0  0
    0  0  0  0  0  0  0  0  0  0  0  0  0  0  0  0  0  0  0  0
    0  0  0  0  0  0  0  0  0  0
    0  0  0  0  0  0  0  0  0  0  0  0  0  0  0  0  0  0  0  0
    0  0  0  0  0  0  0  0  0  0  0  0  0  0  0  0  0  0  0  0
    0  0  0  0  0  0  0  0  0  0
    0  0  0  0  0  0  0  0  0  0  0  0  0  0  0  0  0  0  0  0
    0  0  0  0  0  0  0  0  0  0  0  0  0  0  0  0  0  0  0  0
    0  0  0  0  0  0  0  0  0  0
    0  0  0  0  0  0  0  0  0  0  0  0  0  0  0  0  0  0  0  0
    0  0  0  0  0  0  0  0  0  0  0  0  0  0  0  0  0  0  0  0
    0  0  0  0  0  0  0  0  0  0
    0  0  0  0  0  0  0  0  0  0  0  0  0  0  0  0  0  0  0  0
    0  0  0  0  0  0  0  0  0  0  0  0  0  0  0  0  0  0  0  0
    0  0  0  0  0  0  0  0  0  0
    0  0  0  0  0  0  0  0  0  0  0  0  0  0  0  0  0  0  0  0
    0  0  0  0  0  0  0  0  0  0  0  0  0  0  0  0  0  0  0  0
    0  0  0  0  0  0  0  0  0  0
    0  0  0  0  0  0  0  0  0  0  0  0  0  0  0  0  0  0  0  0
    0  0  0  0  0  0  0  0  0  0  0  0  0  0  0  0  0  0  0  0
    0  0  0  0  0  0  0  0  0  0
    0  0  0  0  0  0  0  0  0  0  0  0  0  0  0  0  0  0  0  0
    0  0  0  0  0  0  0  0  0  0  0  0  0  0  0  0  0  0  0  0
    0  0  0  0  0  0  0  0  0  0
    0  0  0  0  0  0  0  0  0  0  0  0  0  0  0  0  0  0  0  0
    0  0  0  0  0  0  0  0  0  0  0  0  0  0  0  0  0  0  0  0
    0  0  0  0  0  0  0  0  0  0
    0  0  0  0  0  0  0  0  0  0  0  0  0  0  0  0  0  0  0  0
    0  0  0  0  0  0  0  0  0  0  0  0  0  0  0  0  0  0  0  0
    0  0  0  0  0  0  0  0  0  0
    0  0  0  0  0  0  0  0  0  0  0  0  0  0  0  0  0  0  0  0
    0  0  0  0  0  0  0  0  0  0  0  0  0  0  0  0  0  0  0  0
    0  0  0  0  0  0  0  0  0  0
    0  0  0  0  0  0  0  0  0  0  0  0  0  0  0  0  0  0  0  0
    0  0  0  0  0  0  0  0  0  0  0  0  0  0  0  0  0  0  0  0
    0  0  0  0  0  0  0  0  0  0
    0  0  0  0  0  0  0  0  0  0  0  0  0  0  0  0  0  0  0  0
    0  0  0  0  0  0  0  0  0  0  0  0  0  0  0  0  0  0  0  0
    0  0  0  0  0  0  0  0  0  0
    0  0  0  0  0  0  0  0  0  0  0  0  0  0  0  0  0  0  0  0
    0  0  0  0  0  0  0  0  0  0  0  0  0  0  0  0  0  0  0  0
    0  0  0  0  0  0  0  0  0  0
    0  0  0  0  0  0  0  0  0  0  0  0  0  0  0  0  0  0  0  0
    0  0  0  0  0  0  0  0  0  0  0  0  0  0  0  0  0  0  0  0
    0  0  0  0  0  0  0  0  0  0
    0  0  0  0  0  0  0  0  0  0  0  0  0  0  0  0  0  0  0  0
    0  0  0  0  0  0  0  0  0  0  0  0  0  0  0  0  0  0  0  0
    0  0  0  0  0  0  0  0  0  0
    0  0  0  0  0  0  0  0  0  0  0  0  0  0  0  0  0  0  0  0
    0  0  0  0  0  0  0  0  0  0  0  0  0  0  0  0  0  0  0  0
    0  0  0  0  0  0  0  0  0  0
    0  0  0  0  0  0  0  0  0  0  0  0  0  0  0  0  0  0  0  0
    0  0  0  0  0  0  0  0  0  0  0  0  0  0  0  0  0  0  0  0
    0  0  0  0  0  0  0  0  0  0
    0  0  0  0  0  0  0  0  0  0  0  0  0  0  0  0  0  0  0  0
    0  0  0  0  0  0  0  0  0  0  0  0  0  0  0  0  0  0  0  0
    0  0  0  0  0  0  0  0  0  0
    0  0  0  0  0  0  0  0  0  0  0  0  0  0  0  0  0  0  0  0
    0  0  0  0  0  0  0  0  0  0  0  0  0  0  0  0  0  0  0  0
    0  0  0  0  0  0  0  0  0  0
    0  0  0  0  0  0  0  0  0  0  0  0  0  0  0  0  0  0  0  0
    0  0  0  0  0  0  0  0  0  0  0  0  0  0  0  0  0  0  0  0
    0  0  0  0  0  0  0  0  0  0
    0  0  0  0  0  0  0  0  0  0  0  0  0  0  0  0  0  0  0  0
    0  0  0  0  0  0  0  0  0  0  0  0  0  0  0  0  0  0  0  0
    0  0  0  0  0  0  0  0  0  0
    0  0  0  0  0  0  0  0  0  0  0  0  0  0  0  0  0  0  0  0
    0  0  0  0  0  0  0  0  0  0  0  0  0  0  0  0  0  0  0  0
    0  0  0  0  0  0  0  0  0  0
    0  0  0  0  0  0  0  0  0  0  0  0  0  0  0  0  0  0  0  0
    0  0  0  0  0  0  0  0  0  0  0  0  0  0  0  0  0  0  0  0
    0  0  0  0  0  0  0  0  0  0
    0  0  0  0  0  0  0  0  0  0  0  0  0  0  0  0  0  0  0  0
    0  0  0  0  0  0  0  0  0  0  0  0  0  0  0  0  0  0  0  0
    0  0  0  0  0  0  0  0  0  0
    0  0  0  0  0  0  0  0  0  0  0  0  0  0  0  0  0  0  0  0
    0  0  0  0  0  0  0  0  0  0  0  0  0  0  0  0  0  0  0  0
    0  0  0  0  0  0  0  0  0  0
    0  0  0  0  0  0  0  0  0  0  0  0  0  0  0  0  0  0  0  0
    0  0  0  0  0  0  0  0  0  0  0  0  0  0  0  0  0  0  0  0
    0  0  0  0  0  0  0  0  0  0
    0  0  0  0  0  0  0  0  0  0  0  0  0  0  0  0  0  0  0  0
    0  0  0  0  0  0  0  0  0  0  0  0  0  0  0  0  0  0  0  0
    0  0  0  0  0  0  0  0  0  0
    0  0  0  0  0  0  0  0  0  0  0  0  0  0  0  0  0  0  0  0
    0  0  0  0  0  0  0  0  0  0  0  0  0  0  0  0  0  0  0  0
    0  0  0  0  0  0  0  0  0  0
    0  0  0  0  0  0  0  0  0  0  0  0  0  0  0  0  0  0  0  0
    0  0  0  0  0  0  0  0  0  0  0  0  0  0  0  0  0  0  0  0
    0  0  0  0  0  0  0  0  0  0
    0  0  0  0  0  0  0  0  0  0  0  0  0  0  0  0  0  0  0  0
    0  0  0  0  0  0  0  0  0  0  0  0  0  0  0  0  0  0  0  0
    0  0  0  0  0  0  0  0  0  0
    0  0  0  0  0  0  0  0  0  0  0  0  0  0  0  0  0  0  0  0
    0  0  0  0  0  0  0  0  0  0  0  0  0  0  0  0  0  0  0  0
    0  0  0  0  0  0  0  0  0  0
    0  0  0  0  0  0  0  0  0  0  0  0  0  0  0  0  0  0  0  0
    0  0  0  0  0  0  0  0  0  0  0  0  0  0  0  0  0  0  0  0
    0  0  0  0  0  0  0  0  0  0
    0  0  0  0  0  0  0  0  0  0  0  0  0  0  0  0  0  0  0  0
    0  0  0  0  0  0  0  0  0  0  0  0  0  0  0  0  0  0  0  0
    0  0  0  0  0  0  0  0  0  0
    0  0  0  0  0  0  0  0  0  0  0  0  0  0  0  0  0  0  0  0
    0  0  0  0  0  0  0  0  0  0  0  0  0  0  0  0  0  0  0  0
    0  0  0  0  0  0  0  0  0  0
    0  0  0  0  0  0  0  0  0  0  0  0  0  0  0  0  0  0  0  0
    0  0  0  0  0  0  0  0  0  0  0  0  0  0  0  0  0  0  0  0
    0  0  0  0  0  0  0  0  0  0
    0  0  0  0  0  0  0  0  0  0  0  0  0  0  0  0  0  0  0  0
    0  0  0  0  0  0  0  0  0  0  0  0  0  0  0  0  0  0  0  0
    0  0  0  0  0  0  0  0  0  0
    0  0  0  0  0  0  0  0  0  0  0  0  0  0  0  0  0  0  0  0
    0  0  0  0  0  0  0  0  0  0  0  0  0  0  0  0  0  0  0  0
    0  0  0  0  0  0  0  0  0  0
    0  0  0  0  0  0  0  0  0  0  0  0  0  0  0  0  0  0  0  0
    0  0  0  0  0  0  0  0  0  0  0  0  0  0  0  0  0  0  0  0
    0  0  0  0  0  0  0  0  0  0
    0  0  0  0  0  0  0  0  0  0  0  0  0  0  0  0  0  0  0  0
    0  0  0  0  0  0  0  0  0  0  0  0  0  0  0  0  0  0  0  0
    0  0  0  0  0  0  0  0  0  0
    0  0  0  0  0  0  0  0  0  0  0  0  0  0  0  0  0  0  0  0
    0  0  0  0  0  0  0  0  0  0  0  0  0  0  0  0  0  0  0  0
    0  0  0  0  0  0  0  0  0  0
    0  0  0  0  0  0  0  0  0  0  0  0  0  0  0  0  0  0  0  0
    0  0  0  0  0  0  0  0  0  0  0  0  0  0  0  0  0  0  0  0
    0  0  0  0  0  0  0  0  0  0
    0  0  0  0  0  0  0  0  0  0  0  0  0  0  0  0  0  0  0  0
    0  0  0  0  0  0  0  0  0  0  0  0  0  0  0  0  0  0  0  0
    0  0  0  0  0  0  0  0  0  0
    0  0  0  0  0  0  0  0  0  0  0  0  0  0  0  0  0  0  0  0
    0  0  0  0  0  0  0  0  0  0  0  0  0  0  0  0  0  0  0  0
    0  0  0  0  0  0  0  0  0  0
    0  0  0  0  0  0  0  0  0  0  0  0  0  0  0  0  0  0  0  0
    0  0  0  0  0  0  0  0  0  0  0  0  0  0  0  0  0  0  0  0
    0  0  0  0  0  0  0  0  0  0
    0  0  0  0  0  0  0  0  0  0  0  0  0  0  0  0  0  0  0  0
    0  0  0  0  0  0  0  0  0  0  0  0  0  0  0  0  0  0  0  0
    0  0  0  0  0  0  0  0  0  0
    0  0  0  0  0  0  0  0  0  0  0  0  0  0  0  0  0  0  0  0
    0  0  0  0  0  0  0  0  0  0  0  0  0  0  0  0  0  0  0  0
    0  0  0  0  0  0  0  0  0  0
    0  0  0  0  0  0  0  0  0  0  0  0  0  0  0  0  0  0  0  0
    0  0  0  0  0  0  0  0  0  0  0  0  0  0  0  0  0  0  0  0
    0  0  0  0  0  0  0  0  0  0
    0  0  0  0  0  0  0  0  0  0  0  0  0  0  0  0  0  0  0  0
    0  0  0  0  0  0  0  0  0  0  0  0  0  0  0  0  0  0  0  0
    0  0  0  0  0  0  0  0  0  0
    0  0  0  0  0  0  0  0  0  0  0  0  0  0  0  0  0  0  0  0
    0  0  0  0  0  0  0  0  0  0  0  0  0  0  0  0  0  0  0  0
    0  0  0  0  0  0  0  0  0  0
    0  0  0  0  0  0  0  0  0  0  0  0  0  0  0  0  0  0  0  0
    0  0  0  0  0  0  0  0  0  0  0  0  0  0  0  0  0  0  0  0
    0  0  0  0  0  0  0  0  0  0
    0  0  0  0  0  0  0  0  0  0  0  0  0  0  0  0  0  0  0  0
    0  0  0  0  0  0  0  0  0  0  0  0  0  0  0  0  0  0  0  0
    0  0  0  0  0  0  0  0  0  0
    0  0  0  0  0  0  0  0  0  0  0  0  0  0  0  0  0  0  0  0
    0  0  0  0  0  0  0  0  0  0  0  0  0  0  0  0  0  0  0  0
    0  0  0  0  0  0  0  0  0  0
    0  0  0  0  0  0  0  0  0  0  0  0  0  0  0  0  0  0  0  0
    0  0  0  0  0  0  0  0  0  0  0  0  0  0  0  0  0  0  0  0
    0  0  0  0  0  0  0  0  0  0
    0  0  0  0  0  0  0  0  0  0  0  0  0  0  0  0  0  0  0  0
    0  0  0  0  0  0  0  0  0  0  0  0  0  0  0  0  0  0  0  0
    0  0  0  0  0  0  0  0  0  0
  k
    INTERNAL  FACTOR  1.0
           1.00000000       1.00000000       1.00000000       1.00000000       1.00000000       1.00000000       1.00000000       1.00000000       1.00000000       1.00000000       1.00000000       1.00000000       1.00000000       1.00000000       1.00000000       1.00000000       1.00000000       1.00000000       1.00000000       1.00000000
         1.00000000       1.00000000       1.00000000       1.00000000       1.00000000       1.00000000       1.00000000       1.00000000       1.00000000       1.00000000       1.00000000       1.00000000       1.00000000       1.00000000       1.00000000       1.00000000       1.00000000       1.00000000       1.00000000       1.00000000
         1.00000000       1.00000000       1.00000000       1.00000000       1.00000000       1.00000000       1.00000000       1.00000000       1.00000000       1.00000000
         1.00000000       1.00000000       1.00000000       1.00000000       1.00000000       1.00000000       1.00000000       1.00000000       1.00000000       1.00000000       1.00000000       1.00000000       1.00000000       1.00000000       1.00000000       1.00000000       1.00000000       1.00000000       1.00000000       1.00000000
         1.00000000       1.00000000       1.00000000       1.00000000       1.00000000       1.00000000       1.00000000       1.00000000       1.00000000       1.00000000       1.00000000       1.00000000       1.00000000       1.00000000       1.00000000       1.00000000       1.00000000       1.00000000       1.00000000       1.00000000
         1.00000000       1.00000000       1.00000000       1.00000000       1.00000000       1.00000000       1.00000000       1.00000000       1.00000000       1.00000000
         1.00000000       1.00000000       1.00000000       1.00000000       1.00000000       1.00000000       1.00000000       1.00000000       1.00000000       1.00000000       1.00000000       1.00000000       1.00000000       1.00000000       1.00000000       1.00000000       1.00000000       1.00000000       1.00000000       1.00000000
         1.00000000       1.00000000       1.00000000       1.00000000       1.00000000       1.00000000       1.00000000       1.00000000       1.00000000       1.00000000       1.00000000       1.00000000       1.00000000       1.00000000       1.00000000       1.00000000       1.00000000       1.00000000       1.00000000       1.00000000
         1.00000000       1.00000000       1.00000000       1.00000000       1.00000000       1.00000000       1.00000000       1.00000000       1.00000000       1.00000000
         1.00000000       1.00000000       1.00000000       1.00000000       1.00000000       1.00000000       1.00000000       1.00000000       1.00000000       1.00000000       1.00000000       1.00000000       1.00000000       1.00000000       1.00000000       1.00000000       1.00000000       1.00000000       1.00000000       1.00000000
         1.00000000       1.00000000       1.00000000       1.00000000       1.00000000       1.00000000       1.00000000       1.00000000       1.00000000       1.00000000       1.00000000       1.00000000       1.00000000       1.00000000       1.00000000       1.00000000       1.00000000       1.00000000       1.00000000       1.00000000
         1.00000000       1.00000000       1.00000000       1.00000000       1.00000000       1.00000000       1.00000000       1.00000000       1.00000000       1.00000000
         1.00000000       1.00000000       1.00000000       1.00000000       1.00000000       1.00000000       1.00000000       1.00000000       1.00000000       1.00000000       1.00000000       1.00000000       1.00000000       1.00000000       1.00000000       1.00000000       1.00000000       1.00000000       1.00000000       1.00000000
         1.00000000       1.00000000       1.00000000       1.00000000       1.00000000       1.00000000       1.00000000       1.00000000       1.00000000       1.00000000       1.00000000       1.00000000       1.00000000       1.00000000       1.00000000       1.00000000       1.00000000       1.00000000       1.00000000       1.00000000
         1.00000000       1.00000000       1.00000000       1.00000000       1.00000000       1.00000000       1.00000000       1.00000000       1.00000000       1.00000000
         1.00000000       1.00000000       1.00000000       1.00000000       1.00000000       1.00000000       1.00000000       1.00000000       1.00000000       1.00000000       1.00000000       1.00000000       1.00000000       1.00000000       1.00000000       1.00000000       1.00000000       1.00000000       1.00000000       1.00000000
         1.00000000       1.00000000       1.00000000       1.00000000       1.00000000       1.00000000       1.00000000       1.00000000       1.00000000       1.00000000       1.00000000       1.00000000       1.00000000       1.00000000       1.00000000       1.00000000       1.00000000       1.00000000       1.00000000       1.00000000
         1.00000000       1.00000000       1.00000000       1.00000000       1.00000000       1.00000000       1.00000000       1.00000000       1.00000000       1.00000000
         1.00000000       1.00000000       1.00000000       1.00000000       1.00000000       1.00000000       1.00000000       1.00000000       1.00000000       1.00000000       1.00000000       1.00000000       1.00000000       1.00000000       1.00000000       1.00000000       1.00000000       1.00000000       1.00000000       1.00000000
         1.00000000       1.00000000       1.00000000       1.00000000       1.00000000       1.00000000       1.00000000       1.00000000       1.00000000       1.00000000       1.00000000       1.00000000       1.00000000       1.00000000       1.00000000       1.00000000       1.00000000       1.00000000       1.00000000       1.00000000
         1.00000000       1.00000000       1.00000000       1.00000000       1.00000000       1.00000000       1.00000000       1.00000000       1.00000000       1.00000000
         1.00000000       1.00000000       1.00000000       1.00000000       1.00000000       1.00000000       1.00000000       1.00000000       1.00000000       1.00000000       1.00000000       1.00000000       1.00000000       1.00000000       1.00000000       1.00000000       1.00000000       1.00000000       1.00000000       1.00000000
         1.00000000       1.00000000       1.00000000       1.00000000       1.00000000       1.00000000       1.00000000       1.00000000       1.00000000       1.00000000       1.00000000       1.00000000       1.00000000       1.00000000       1.00000000       1.00000000       1.00000000       1.00000000       1.00000000       1.00000000
         1.00000000       1.00000000       1.00000000       1.00000000       1.00000000       1.00000000       1.00000000       1.00000000       1.00000000       1.00000000
         1.00000000       1.00000000       1.00000000       1.00000000       1.00000000       1.00000000       1.00000000       1.00000000       1.00000000       1.00000000       1.00000000       1.00000000       1.00000000       1.00000000       1.00000000       1.00000000       1.00000000       1.00000000       1.00000000       1.00000000
         1.00000000       1.00000000       1.00000000       1.00000000       1.00000000       1.00000000       1.00000000       1.00000000       1.00000000       1.00000000       1.00000000       1.00000000       1.00000000       1.00000000       1.00000000       1.00000000       1.00000000       1.00000000       1.00000000       1.00000000
         1.00000000       1.00000000       1.00000000       1.00000000       1.00000000       1.00000000       1.00000000       1.00000000       1.00000000       1.00000000
         1.00000000       1.00000000       1.00000000       1.00000000       1.00000000       1.00000000       1.00000000       1.00000000       1.00000000       1.00000000       1.00000000       1.00000000       1.00000000       1.00000000       1.00000000       1.00000000       1.00000000       1.00000000       1.00000000       1.00000000
         1.00000000       1.00000000       1.00000000       1.00000000       1.00000000       1.00000000       1.00000000       1.00000000       1.00000000       1.00000000       1.00000000       1.00000000       1.00000000       1.00000000       1.00000000       1.00000000       1.00000000       1.00000000       1.00000000       1.00000000
         1.00000000       1.00000000       1.00000000       1.00000000       1.00000000       1.00000000       1.00000000       1.00000000       1.00000000       1.00000000
         1.00000000       1.00000000       1.00000000       1.00000000       1.00000000       1.00000000       1.00000000       1.00000000       1.00000000       1.00000000       1.00000000       1.00000000       1.00000000       1.00000000       1.00000000       1.00000000       1.00000000       1.00000000       1.00000000       1.00000000
         1.00000000       1.00000000       1.00000000       1.00000000       1.00000000       1.00000000       1.00000000       1.00000000       1.00000000       1.00000000       1.00000000       1.00000000       1.00000000       1.00000000       1.00000000       1.00000000       1.00000000       1.00000000       1.00000000       1.00000000
         1.00000000       1.00000000       1.00000000       1.00000000       1.00000000       1.00000000       1.00000000       1.00000000       1.00000000       1.00000000
         1.00000000       1.00000000       1.00000000       1.00000000       1.00000000       1.00000000       1.00000000       1.00000000       1.00000000       1.00000000       1.00000000       1.00000000       1.00000000       1.00000000       1.00000000       1.00000000       1.00000000       1.00000000       1.00000000       1.00000000
         1.00000000       1.00000000       1.00000000       1.00000000       1.00000000       1.00000000       1.00000000       1.00000000       1.00000000       1.00000000       1.00000000       1.00000000       1.00000000       1.00000000       1.00000000       1.00000000       1.00000000       1.00000000       1.00000000       1.00000000
         1.00000000       1.00000000       1.00000000       1.00000000       1.00000000       1.00000000       1.00000000       1.00000000       1.00000000       1.00000000
         1.00000000       1.00000000       1.00000000       1.00000000       1.00000000       1.00000000       1.00000000       1.00000000       1.00000000       1.00000000       1.00000000       1.00000000       1.00000000       1.00000000       1.00000000       1.00000000       1.00000000       1.00000000       1.00000000       1.00000000
         1.00000000       1.00000000       1.00000000       1.00000000       1.00000000       1.00000000       1.00000000       1.00000000       1.00000000       1.00000000       1.00000000       1.00000000       1.00000000       1.00000000       1.00000000       1.00000000       1.00000000       1.00000000       1.00000000       1.00000000
         1.00000000       1.00000000       1.00000000       1.00000000       1.00000000       1.00000000       1.00000000       1.00000000       1.00000000       1.00000000
         1.00000000       1.00000000       1.00000000       1.00000000       1.00000000       1.00000000       1.00000000       1.00000000       1.00000000       1.00000000       1.00000000       1.00000000       1.00000000       1.00000000       1.00000000       1.00000000       1.00000000       1.00000000       1.00000000       1.00000000
         1.00000000       1.00000000       1.00000000       1.00000000       1.00000000       1.00000000       1.00000000       1.00000000       1.00000000       1.00000000       1.00000000       1.00000000       1.00000000       1.00000000       1.00000000       1.00000000       1.00000000       1.00000000       1.00000000       1.00000000
         1.00000000       1.00000000       1.00000000       1.00000000       1.00000000       1.00000000       1.00000000       1.00000000       1.00000000       1.00000000
         1.00000000       1.00000000       1.00000000       1.00000000       1.00000000       1.00000000       1.00000000       1.00000000       1.00000000       1.00000000       1.00000000       1.00000000       1.00000000       1.00000000       1.00000000       1.00000000       1.00000000       1.00000000       1.00000000       1.00000000
         1.00000000       1.00000000       1.00000000       1.00000000       1.00000000       1.00000000       1.00000000       1.00000000       1.00000000       1.00000000       1.00000000       1.00000000       1.00000000       1.00000000       1.00000000       1.00000000       1.00000000       1.00000000       1.00000000       1.00000000
         1.00000000       1.00000000       1.00000000       1.00000000       1.00000000       1.00000000       1.00000000       1.00000000       1.00000000       1.00000000
         1.00000000       1.00000000       1.00000000       1.00000000       1.00000000       1.00000000       1.00000000       1.00000000       1.00000000       1.00000000       1.00000000       1.00000000       1.00000000       1.00000000       1.00000000       1.00000000       1.00000000       1.00000000       1.00000000       1.00000000
         1.00000000       1.00000000       1.00000000       1.00000000       1.00000000       1.00000000       1.00000000       1.00000000       1.00000000       1.00000000       1.00000000       1.00000000       1.00000000       1.00000000       1.00000000       1.00000000       1.00000000       1.00000000       1.00000000       1.00000000
         1.00000000       1.00000000       1.00000000       1.00000000       1.00000000       1.00000000       1.00000000       1.00000000       1.00000000       1.00000000
         1.00000000       1.00000000       1.00000000       1.00000000       1.00000000       1.00000000       1.00000000       1.00000000       1.00000000       1.00000000       1.00000000       1.00000000       1.00000000       1.00000000       1.00000000       1.00000000       1.00000000       1.00000000       1.00000000       1.00000000
         1.00000000       1.00000000       1.00000000       1.00000000       1.00000000       1.00000000       1.00000000       1.00000000       1.00000000       1.00000000       1.00000000       1.00000000       1.00000000       1.00000000       1.00000000       1.00000000       1.00000000       1.00000000       1.00000000       1.00000000
         1.00000000       1.00000000       1.00000000       1.00000000       1.00000000       1.00000000       1.00000000       1.00000000       1.00000000       1.00000000
         1.00000000       1.00000000       1.00000000       1.00000000       1.00000000       1.00000000       1.00000000       1.00000000       1.00000000       1.00000000       1.00000000       1.00000000       1.00000000       1.00000000       1.00000000       1.00000000       1.00000000       1.00000000       1.00000000       1.00000000
         1.00000000       1.00000000       1.00000000       1.00000000       1.00000000       1.00000000       1.00000000       1.00000000       1.00000000       1.00000000       1.00000000       1.00000000       1.00000000       1.00000000       1.00000000       1.00000000       1.00000000       1.00000000       1.00000000       1.00000000
         1.00000000       1.00000000       1.00000000       1.00000000       1.00000000       1.00000000       1.00000000       1.00000000       1.00000000       1.00000000
         1.00000000       1.00000000       1.00000000       1.00000000       1.00000000       1.00000000       1.00000000       1.00000000       1.00000000       1.00000000       1.00000000       1.00000000       1.00000000       1.00000000       1.00000000       1.00000000       1.00000000       1.00000000       1.00000000       1.00000000
         1.00000000       1.00000000       1.00000000       1.00000000       1.00000000       1.00000000       1.00000000       1.00000000       1.00000000       1.00000000       1.00000000       1.00000000       1.00000000       1.00000000       1.00000000       1.00000000       1.00000000       1.00000000       1.00000000       1.00000000
         1.00000000       1.00000000       1.00000000       1.00000000       1.00000000       1.00000000       1.00000000       1.00000000       1.00000000       1.00000000
         1.00000000       1.00000000       1.00000000       1.00000000       1.00000000       1.00000000       1.00000000       1.00000000       1.00000000       1.00000000       1.00000000       1.00000000       1.00000000       1.00000000       1.00000000       1.00000000       1.00000000       1.00000000       1.00000000       1.00000000
         1.00000000       1.00000000       1.00000000       1.00000000       1.00000000       1.00000000       1.00000000       1.00000000       1.00000000       1.00000000       1.00000000       1.00000000       1.00000000       1.00000000       1.00000000       1.00000000       1.00000000       1.00000000       1.00000000       1.00000000