BEGIN options
  BUDGET  FILEOUT  gw_inv.cbb
  HEAD  FILEOUT  gw_inv.hds
END options

BEGIN period  1
  SAVE  HEAD  ALL
  SAVE  BUDGET  ALL
END period  1

