BEGIN options
END options

BEGIN dimensions
  MAXBOUND  50
END dimensions

BEGIN period  1
  1 80 1       0.00000000
  1 80 2       0.00000000
  1 80 3       0.00000000
  1 80 4       0.00000000
  1 80 5       0.00000000
  1 80 6       0.00000000
  1 80 7       0.00000000
  1 80 8       0.00000000
  1 80 9       0.00000000
  1 80 10       0.00000000
  1 80 11       0.00000000
  1 80 12       0.00000000
  1 80 13       0.00000000
  1 80 14       0.00000000
  1 80 15       0.00000000
  1 80 16       0.00000000
  1 80 17       0.00000000
  1 80 18       0.00000000
  1 80 19       0.00000000
  1 80 20       0.00000000
  1 80 21       0.00000000
  1 80 22       0.00000000
  1 80 23       0.00000000
  1 80 24       0.00000000
  1 80 25       0.00000000
  1 80 26       0.00000000
  1 80 27       0.00000000
  1 80 28       0.00000000
  1 80 29       0.00000000
  1 80 30       0.00000000
  1 80 31       0.00000000
  1 80 32       0.00000000
  1 80 33       0.00000000
  1 80 34       0.00000000
  1 80 35       0.00000000
  1 80 36       0.00000000
  1 80 37       0.00000000
  1 80 38       0.00000000
  1 80 39       0.00000000
  1 80 40       0.00000000
  1 80 41       0.00000000
  1 80 42       0.00000000
  1 80 43       0.00000000
  1 80 44       0.00000000
  1 80 45       0.00000000
  1 80 46       0.00000000
  1 80 47       0.00000000
  1 80 48       0.00000000
  1 80 49       0.00000000
  1 80 50       0.00000000
END period  1

