BEGIN options
END options

BEGIN griddata
  icelltype
    INTERNAL  FACTOR  1
      0  0  0  0  0  0  0  0  0  0  0  0  0  0  0  0  0  0  0  0
    0  0  0  0  0  0  0  0  0  0  0  0  0  0  0  0  0  0  0  0
    0  0  0  0  0  0  0  0  0  0
    0  0  0  0  0  0  0  0  0  0  0  0  0  0  0  0  0  0  0  0
    0  0  0  0  0  0  0  0  0  0  0  0  0  0  0  0  0  0  0  0
    0  0  0  0  0  0  0  0  0  0
    0  0  0  0  0  0  0  0  0  0  0  0  0  0  0  0  0  0  0  0
    0  0  0  0  0  0  0  0  0  0  0  0  0  0  0  0  0  0  0  0
    0  0  0  0  0  0  0  0  0  0
    0  0  0  0  0  0  0  0  0  0  0  0  0  0  0  0  0  0  0  0
    0  0  0  0  0  0  0  0  0  0  0  0  0  0  0  0  0  0  0  0
    0  0  0  0  0  0  0  0  0  0
    0  0  0  0  0  0  0  0  0  0  0  0  0  0  0  0  0  0  0  0
    0  0  0  0  0  0  0  0  0  0  0  0  0  0  0  0  0  0  0  0
    0  0  0  0  0  0  0  0  0  0
    0  0  0  0  0  0  0  0  0  0  0  0  0  0  0  0  0  0  0  0
    0  0  0  0  0  0  0  0  0  0  0  0  0  0  0  0  0  0  0  0
    0  0  0  0  0  0  0  0  0  0
    0  0  0  0  0  0  0  0  0  0  0  0  0  0  0  0  0  0  0  0
    0  0  0  0  0  0  0  0  0  0  0  0  0  0  0  0  0  0  0  0
    0  0  0  0  0  0  0  0  0  0
    0  0  0  0  0  0  0  0  0  0  0  0  0  0  0  0  0  0  0  0
    0  0  0  0  0  0  0  0  0  0  0  0  0  0  0  0  0  0  0  0
    0  0  0  0  0  0  0  0  0  0
    0  0  0  0  0  0  0  0  0  0  0  0  0  0  0  0  0  0  0  0
    0  0  0  0  0  0  0  0  0  0  0  0  0  0  0  0  0  0  0  0
    0  0  0  0  0  0  0  0  0  0
    0  0  0  0  0  0  0  0  0  0  0  0  0  0  0  0  0  0  0  0
    0  0  0  0  0  0  0  0  0  0  0  0  0  0  0  0  0  0  0  0
    0  0  0  0  0  0  0  0  0  0
    0  0  0  0  0  0  0  0  0  0  0  0  0  0  0  0  0  0  0  0
    0  0  0  0  0  0  0  0  0  0  0  0  0  0  0  0  0  0  0  0
    0  0  0  0  0  0  0  0  0  0
    0  0  0  0  0  0  0  0  0  0  0  0  0  0  0  0  0  0  0  0
    0  0  0  0  0  0  0  0  0  0  0  0  0  0  0  0  0  0  0  0
    0  0  0  0  0  0  0  0  0  0
    0  0  0  0  0  0  0  0  0  0  0  0  0  0  0  0  0  0  0  0
    0  0  0  0  0  0  0  0  0  0  0  0  0  0  0  0  0  0  0  0
    0  0  0  0  0  0  0  0  0  0
    0  0  0  0  0  0  0  0  0  0  0  0  0  0  0  0  0  0  0  0
    0  0  0  0  0  0  0  0  0  0  0  0  0  0  0  0  0  0  0  0
    0  0  0  0  0  0  0  0  0  0
    0  0  0  0  0  0  0  0  0  0  0  0  0  0  0  0  0  0  0  0
    0  0  0  0  0  0  0  0  0  0  0  0  0  0  0  0  0  0  0  0
    0  0  0  0  0  0  0  0  0  0
    0  0  0  0  0  0  0  0  0  0  0  0  0  0  0  0  0  0  0  0
    0  0  0  0  0  0  0  0  0  0  0  0  0  0  0  0  0  0  0  0
    0  0  0  0  0  0  0  0  0  0
    0  0  0  0  0  0  0  0  0  0  0  0  0  0  0  0  0  0  0  0
    0  0  0  0  0  0  0  0  0  0  0  0  0  0  0  0  0  0  0  0
    0  0  0  0  0  0  0  0  0  0
    0  0  0  0  0  0  0  0  0  0  0  0  0  0  0  0  0  0  0  0
    0  0  0  0  0  0  0  0  0  0  0  0  0  0  0  0  0  0  0  0
    0  0  0  0  0  0  0  0  0  0
    0  0  0  0  0  0  0  0  0  0  0  0  0  0  0  0  0  0  0  0
    0  0  0  0  0  0  0  0  0  0  0  0  0  0  0  0  0  0  0  0
    0  0  0  0  0  0  0  0  0  0
    0  0  0  0  0  0  0  0  0  0  0  0  0  0  0  0  0  0  0  0
    0  0  0  0  0  0  0  0  0  0  0  0  0  0  0  0  0  0  0  0
    0  0  0  0  0  0  0  0  0  0
    0  0  0  0  0  0  0  0  0  0  0  0  0  0  0  0  0  0  0  0
    0  0  0  0  0  0  0  0  0  0  0  0  0  0  0  0  0  0  0  0
    0  0  0  0  0  0  0  0  0  0
    0  0  0  0  0  0  0  0  0  0  0  0  0  0  0  0  0  0  0  0
    0  0  0  0  0  0  0  0  0  0  0  0  0  0  0  0  0  0  0  0
    0  0  0  0  0  0  0  0  0  0
    0  0  0  0  0  0  0  0  0  0  0  0  0  0  0  0  0  0  0  0
    0  0  0  0  0  0  0  0  0  0  0  0  0  0  0  0  0  0  0  0
    0  0  0  0  0  0  0  0  0  0
    0  0  0  0  0  0  0  0  0  0  0  0  0  0  0  0  0  0  0  0
    0  0  0  0  0  0  0  0  0  0  0  0  0  0  0  0  0  0  0  0
    0  0  0  0  0  0  0  0  0  0
    0  0  0  0  0  0  0  0  0  0  0  0  0  0  0  0  0  0  0  0
    0  0  0  0  0  0  0  0  0  0  0  0  0  0  0  0  0  0  0  0
    0  0  0  0  0  0  0  0  0  0
    0  0  0  0  0  0  0  0  0  0  0  0  0  0  0  0  0  0  0  0
    0  0  0  0  0  0  0  0  0  0  0  0  0  0  0  0  0  0  0  0
    0  0  0  0  0  0  0  0  0  0
    0  0  0  0  0  0  0  0  0  0  0  0  0  0  0  0  0  0  0  0
    0  0  0  0  0  0  0  0  0  0  0  0  0  0  0  0  0  0  0  0
    0  0  0  0  0  0  0  0  0  0
    0  0  0  0  0  0  0  0  0  0  0  0  0  0  0  0  0  0  0  0
    0  0  0  0  0  0  0  0  0  0  0  0  0  0  0  0  0  0  0  0
    0  0  0  0  0  0  0  0  0  0
    0  0  0  0  0  0  0  0  0  0  0  0  0  0  0  0  0  0  0  0
    0  0  0  0  0  0  0  0  0  0  0  0  0  0  0  0  0  0  0  0
    0  0  0  0  0  0  0  0  0  0
    0  0  0  0  0  0  0  0  0  0  0  0  0  0  0  0  0  0  0  0
    0  0  0  0  0  0  0  0  0  0  0  0  0  0  0  0  0  0  0  0
    0  0  0  0  0  0  0  0  0  0
    0  0  0  0  0  0  0  0  0  0  0  0  0  0  0  0  0  0  0  0
    0  0  0  0  0  0  0  0  0  0  0  0  0  0  0  0  0  0  0  0
    0  0  0  0  0  0  0  0  0  0
    0  0  0  0  0  0  0  0  0  0  0  0  0  0  0  0  0  0  0  0
    0  0  0  0  0  0  0  0  0  0  0  0  0  0  0  0  0  0  0  0
    0  0  0  0  0  0  0  0  0  0
    0  0  0  0  0  0  0  0  0  0  0  0  0  0  0  0  0  0  0  0
    0  0  0  0  0  0  0  0  0  0  0  0  0  0  0  0  0  0  0  0
    0  0  0  0  0  0  0  0  0  0
    0  0  0  0  0  0  0  0  0  0  0  0  0  0  0  0  0  0  0  0
    0  0  0  0  0  0  0  0  0  0  0  0  0  0  0  0  0  0  0  0
    0  0  0  0  0  0  0  0  0  0
    0  0  0  0  0  0  0  0  0  0  0  0  0  0  0  0  0  0  0  0
    0  0  0  0  0  0  0  0  0  0  0  0  0  0  0  0  0  0  0  0
    0  0  0  0  0  0  0  0  0  0
    0  0  0  0  0  0  0  0  0  0  0  0  0  0  0  0  0  0  0  0
    0  0  0  0  0  0  0  0  0  0  0  0  0  0  0  0  0  0  0  0
    0  0  0  0  0  0  0  0  0  0
    0  0  0  0  0  0  0  0  0  0  0  0  0  0  0  0  0  0  0  0
    0  0  0  0  0  0  0  0  0  0  0  0  0  0  0  0  0  0  0  0
    0  0  0  0  0  0  0  0  0  0
    0  0  0  0  0  0  0  0  0  0  0  0  0  0  0  0  0  0  0  0
    0  0  0  0  0  0  0  0  0  0  0  0  0  0  0  0  0  0  0  0
    0  0  0  0  0  0  0  0  0  0
    0  0  0  0  0  0  0  0  0  0  0  0  0  0  0  0  0  0  0  0
    0  0  0  0  0  0  0  0  0  0  0  0  0  0  0  0  0  0  0  0
    0  0  0  0  0  0  0  0  0  0
    0  0  0  0  0  0  0  0  0  0  0  0  0  0  0  0  0  0  0  0
    0  0  0  0  0  0  0  0  0  0  0  0  0  0  0  0  0  0  0  0
    0  0  0  0  0  0  0  0  0  0
    0  0  0  0  0  0  0  0  0  0  0  0  0  0  0  0  0  0  0  0
    0  0  0  0  0  0  0  0  0  0  0  0  0  0  0  0  0  0  0  0
    0  0  0  0  0  0  0  0  0  0
    0  0  0  0  0  0  0  0  0  0  0  0  0  0  0  0  0  0  0  0
    0  0  0  0  0  0  0  0  0  0  0  0  0  0  0  0  0  0  0  0
    0  0  0  0  0  0  0  0  0  0
    0  0  0  0  0  0  0  0  0  0  0  0  0  0  0  0  0  0  0  0
    0  0  0  0  0  0  0  0  0  0  0  0  0  0  0  0  0  0  0  0
    0  0  0  0  0  0  0  0  0  0
    0  0  0  0  0  0  0  0  0  0  0  0  0  0  0  0  0  0  0  0
    0  0  0  0  0  0  0  0  0  0  0  0  0  0  0  0  0  0  0  0
    0  0  0  0  0  0  0  0  0  0
    0  0  0  0  0  0  0  0  0  0  0  0  0  0  0  0  0  0  0  0
    0  0  0  0  0  0  0  0  0  0  0  0  0  0  0  0  0  0  0  0
    0  0  0  0  0  0  0  0  0  0
    0  0  0  0  0  0  0  0  0  0  0  0  0  0  0  0  0  0  0  0
    0  0  0  0  0  0  0  0  0  0  0  0  0  0  0  0  0  0  0  0
    0  0  0  0  0  0  0  0  0  0
    0  0  0  0  0  0  0  0  0  0  0  0  0  0  0  0  0  0  0  0
    0  0  0  0  0  0  0  0  0  0  0  0  0  0  0  0  0  0  0  0
    0  0  0  0  0  0  0  0  0  0
    0  0  0  0  0  0  0  0  0  0  0  0  0  0  0  0  0  0  0  0
    0  0  0  0  0  0  0  0  0  0  0  0  0  0  0  0  0  0  0  0
    0  0  0  0  0  0  0  0  0  0
    0  0  0  0  0  0  0  0  0  0  0  0  0  0  0  0  0  0  0  0
    0  0  0  0  0  0  0  0  0  0  0  0  0  0  0  0  0  0  0  0
    0  0  0  0  0  0  0  0  0  0
    0  0  0  0  0  0  0  0  0  0  0  0  0  0  0  0  0  0  0  0
    0  0  0  0  0  0  0  0  0  0  0  0  0  0  0  0  0  0  0  0
    0  0  0  0  0  0  0  0  0  0
    0  0  0  0  0  0  0  0  0  0  0  0  0  0  0  0  0  0  0  0
    0  0  0  0  0  0  0  0  0  0  0  0  0  0  0  0  0  0  0  0
    0  0  0  0  0  0  0  0  0  0
    0  0  0  0  0  0  0  0  0  0  0  0  0  0  0  0  0  0  0  0
    0  0  0  0  0  0  0  0  0  0  0  0  0  0  0  0  0  0  0  0
    0  0  0  0  0  0  0  0  0  0
    0  0  0  0  0  0  0  0  0  0  0  0  0  0  0  0  0  0  0  0
    0  0  0  0  0  0  0  0  0  0  0  0  0  0  0  0  0  0  0  0
    0  0  0  0  0  0  0  0  0  0
    0  0  0  0  0  0  0  0  0  0  0  0  0  0  0  0  0  0  0  0
    0  0  0  0  0  0  0  0  0  0  0  0  0  0  0  0  0  0  0  0
    0  0  0  0  0  0  0  0  0  0
    0  0  0  0  0  0  0  0  0  0  0  0  0  0  0  0  0  0  0  0
    0  0  0  0  0  0  0  0  0  0  0  0  0  0  0  0  0  0  0  0
    0  0  0  0  0  0  0  0  0  0
    0  0  0  0  0  0  0  0  0  0  0  0  0  0  0  0  0  0  0  0
    0  0  0  0  0  0  0  0  0  0  0  0  0  0  0  0  0  0  0  0
    0  0  0  0  0  0  0  0  0  0
    0  0  0  0  0  0  0  0  0  0  0  0  0  0  0  0  0  0  0  0
    0  0  0  0  0  0  0  0  0  0  0  0  0  0  0  0  0  0  0  0
    0  0  0  0  0  0  0  0  0  0
    0  0  0  0  0  0  0  0  0  0  0  0  0  0  0  0  0  0  0  0
    0  0  0  0  0  0  0  0  0  0  0  0  0  0  0  0  0  0  0  0
    0  0  0  0  0  0  0  0  0  0
    0  0  0  0  0  0  0  0  0  0  0  0  0  0  0  0  0  0  0  0
    0  0  0  0  0  0  0  0  0  0  0  0  0  0  0  0  0  0  0  0
    0  0  0  0  0  0  0  0  0  0
    0  0  0  0  0  0  0  0  0  0  0  0  0  0  0  0  0  0  0  0
    0  0  0  0  0  0  0  0  0  0  0  0  0  0  0  0  0  0  0  0
    0  0  0  0  0  0  0  0  0  0
    0  0  0  0  0  0  0  0  0  0  0  0  0  0  0  0  0  0  0  0
    0  0  0  0  0  0  0  0  0  0  0  0  0  0  0  0  0  0  0  0
    0  0  0  0  0  0  0  0  0  0
    0  0  0  0  0  0  0  0  0  0  0  0  0  0  0  0  0  0  0  0
    0  0  0  0  0  0  0  0  0  0  0  0  0  0  0  0  0  0  0  0
    0  0  0  0  0  0  0  0  0  0
    0  0  0  0  0  0  0  0  0  0  0  0  0  0  0  0  0  0  0  0
    0  0  0  0  0  0  0  0  0  0  0  0  0  0  0  0  0  0  0  0
    0  0  0  0  0  0  0  0  0  0
    0  0  0  0  0  0  0  0  0  0  0  0  0  0  0  0  0  0  0  0
    0  0  0  0  0  0  0  0  0  0  0  0  0  0  0  0  0  0  0  0
    0  0  0  0  0  0  0  0  0  0
    0  0  0  0  0  0  0  0  0  0  0  0  0  0  0  0  0  0  0  0
    0  0  0  0  0  0  0  0  0  0  0  0  0  0  0  0  0  0  0  0
    0  0  0  0  0  0  0  0  0  0
    0  0  0  0  0  0  0  0  0  0  0  0  0  0  0  0  0  0  0  0
    0  0  0  0  0  0  0  0  0  0  0  0  0  0  0  0  0  0  0  0
    0  0  0  0  0  0  0  0  0  0
    0  0  0  0  0  0  0  0  0  0  0  0  0  0  0  0  0  0  0  0
    0  0  0  0  0  0  0  0  0  0  0  0  0  0  0  0  0  0  0  0
    0  0  0  0  0  0  0  0  0  0
    0  0  0  0  0  0  0  0  0  0  0  0  0  0  0  0  0  0  0  0
    0  0  0  0  0  0  0  0  0  0  0  0  0  0  0  0  0  0  0  0
    0  0  0  0  0  0  0  0  0  0
    0  0  0  0  0  0  0  0  0  0  0  0  0  0  0  0  0  0  0  0
    0  0  0  0  0  0  0  0  0  0  0  0  0  0  0  0  0  0  0  0
    0  0  0  0  0  0  0  0  0  0
    0  0  0  0  0  0  0  0  0  0  0  0  0  0  0  0  0  0  0  0
    0  0  0  0  0  0  0  0  0  0  0  0  0  0  0  0  0  0  0  0
    0  0  0  0  0  0  0  0  0  0
    0  0  0  0  0  0  0  0  0  0  0  0  0  0  0  0  0  0  0  0
    0  0  0  0  0  0  0  0  0  0  0  0  0  0  0  0  0  0  0  0
    0  0  0  0  0  0  0  0  0  0
    0  0  0  0  0  0  0  0  0  0  0  0  0  0  0  0  0  0  0  0
    0  0  0  0  0  0  0  0  0  0  0  0  0  0  0  0  0  0  0  0
    0  0  0  0  0  0  0  0  0  0
    0  0  0  0  0  0  0  0  0  0  0  0  0  0  0  0  0  0  0  0
    0  0  0  0  0  0  0  0  0  0  0  0  0  0  0  0  0  0  0  0
    0  0  0  0  0  0  0  0  0  0
    0  0  0  0  0  0  0  0  0  0  0  0  0  0  0  0  0  0  0  0
    0  0  0  0  0  0  0  0  0  0  0  0  0  0  0  0  0  0  0  0
    0  0  0  0  0  0  0  0  0  0
    0  0  0  0  0  0  0  0  0  0  0  0  0  0  0  0  0  0  0  0
    0  0  0  0  0  0  0  0  0  0  0  0  0  0  0  0  0  0  0  0
    0  0  0  0  0  0  0  0  0  0
    0  0  0  0  0  0  0  0  0  0  0  0  0  0  0  0  0  0  0  0
    0  0  0  0  0  0  0  0  0  0  0  0  0  0  0  0  0  0  0  0
    0  0  0  0  0  0  0  0  0  0
    0  0  0  0  0  0  0  0  0  0  0  0  0  0  0  0  0  0  0  0
    0  0  0  0  0  0  0  0  0  0  0  0  0  0  0  0  0  0  0  0
    0  0  0  0  0  0  0  0  0  0
    0  0  0  0  0  0  0  0  0  0  0  0  0  0  0  0  0  0  0  0
    0  0  0  0  0  0  0  0  0  0  0  0  0  0  0  0  0  0  0  0
    0  0  0  0  0  0  0  0  0  0
    0  0  0  0  0  0  0  0  0  0  0  0  0  0  0  0  0  0  0  0
    0  0  0  0  0  0  0  0  0  0  0  0  0  0  0  0  0  0  0  0
    0  0  0  0  0  0  0  0  0  0
    0  0  0  0  0  0  0  0  0  0  0  0  0  0  0  0  0  0  0  0
    0  0  0  0  0  0  0  0  0  0  0  0  0  0  0  0  0  0  0  0
    0  0  0  0  0  0  0  0  0  0
  k
    INTERNAL  FACTOR  1.0
           4.81383800       4.00556279       3.92124208       3.69816045       4.42640235       5.06931423       3.51519734       2.75678260       2.25943042       2.09536342       1.61854281       1.65598795       0.92211041       1.59946446       1.65413306       1.68561192       0.66270824       0.85745584       0.91911509       0.93497440
         0.91105191       0.78792455       0.85334557       0.49263081       0.38537897       0.25495170       0.19224012       0.17236119       0.16294243       0.23092781       0.27863669       0.25557682       0.24333226       0.17573842       0.37869643       0.23449222       0.53608406       0.64922325       0.72354901       0.44677105
         0.59690587       0.93299060       1.03069314       0.91011970       0.96263960       0.44770234       0.25125553       0.39115198       0.45326978       0.35528183
         3.44104830       2.91100432       2.37457327       2.10053766       2.80091936       5.25759037       3.75148780       3.23236333       1.93035683       1.86616633       2.11721306       1.54962393       1.11373361       1.42849590       1.91292830       1.45404980       0.83800364       0.78594593       0.84032596       0.75453040
         1.52207216       1.06788923       0.59534644       0.44280579       0.34506859       0.24158718       0.27919203       0.32305106       0.31385614       0.30658600       0.35710204       0.26880888       0.17964972       0.33161879       0.46761929       0.37920012       0.52105128       0.69339446       0.44306234       0.43976850
         0.35203809       0.48090728       0.60085331       0.63632010       0.60941243       0.41727277       0.41509808       0.25181175       0.43008402       0.37399260
         2.10277068       2.09421566       1.76501255       2.27626475       2.32696843       4.55518736       2.82391357       3.96067090       3.85317827       2.84336820       1.93812509       1.88812258       1.86979917       2.01965341       1.46534771       1.38631288       1.15698020       1.05063739       0.86077443       1.10597645
         1.39086779       1.42676016       0.94644536       0.70399727       0.42348247       0.43295682       0.47069838       0.39214265       0.46271090       0.42466300       0.49207116       0.60503719       0.32239852       0.28956388       0.48394619       0.33227147       0.54508699       0.52270827       0.37112796       0.55720259
         0.28896673       0.40900254       0.64604167       0.59911689       0.39289102       0.39956751       0.18877694       0.41496244       0.26365866       0.29507187
         2.59274208       2.51109325       2.99531553       2.74412882       2.46026573       2.91781118       3.40527818       4.38087453       2.80261265       3.39183531       1.84784362       0.92140498       0.96241106       1.33948200       1.76418269       1.51299345       1.70012147       1.00576229       0.60180643       1.02062594
         1.50447060       1.54272371       1.43694399       0.97007006       0.57876342       0.36836158       0.52015853       0.33623070       0.37303364       0.54725187       0.49129695       0.48550329       0.38038901       0.30857181       0.37266138       0.57217086       0.42275969       0.56454960       0.54395802       0.28998802
         0.28041009       0.35252039       0.27502563       0.33939053       0.24574514       0.17527229       0.19554414       0.15582682       0.20642218       0.30782113
         3.62662309       3.23506623       2.06643710       2.32531797       1.67408914       2.90543125       3.48191918       2.97238902       2.44618493       2.01757742       1.19537574       0.92953246       0.82054681       1.41797234       2.00830871       1.08626750       1.91214207       1.15705120       0.68850356       0.90239498
         0.81057272       1.75944529       2.45129096       1.21016313       1.02667049       0.80934337       0.48525581       0.46235064       0.56157447       0.78180405       0.48282087       0.55253616       0.44992127       0.48629644       0.50903144       0.20291343       0.28908778       0.40958450       0.38238650       0.30744453
         0.23183251       0.30638150       0.23236288       0.21994748       0.17264823       0.22067839       0.20100964       0.15346013       0.14588216       0.19057299
         2.02657378       2.93060378       2.31418646       1.82004004       2.28975731       2.40788668       3.28953899       3.10672317       1.68390751       1.11592925       1.14524497       0.96525755       0.81185548       0.82348450       1.83163579       1.00395890       2.09222323       2.05917801       1.13681330       0.66104723
         0.85409900       1.45118997       1.55242721       1.15859614       2.02333968       0.80590468       0.66923023       0.85339436       1.07998846       0.69743733       0.65758424       0.38281480       0.29780385       0.33188746       0.30577212       0.26861409       0.54148948       0.56723738       0.25104437       0.19785022
         0.18797588       0.19561667       0.17291373       0.09802845       0.13322593       0.11211064       0.25674907       0.19007406       0.23754373       0.34976661
         1.34244767       1.75224059       1.66479572       2.38145333       1.79077730       2.19029060       2.50595313       1.53014421       2.03949420       1.23255133       0.99288715       1.17734997       1.02831552       1.16060793       1.26217776       1.67424569       2.55710280       1.59782931       1.18149372       0.87402846
         1.31531732       2.43985918       2.30487173       2.06467578       1.50200148       0.93737826       0.81665835       0.76431814       0.77534680       0.68678215       0.38374171       0.37849195       0.23339328       0.34020280       0.42318183       0.42800349       0.43283612       0.65831612       0.35464086       0.21471910
         0.37213738       0.29842874       0.13936645       0.15498499       0.21550305       0.12833086       0.15226130       0.09468694       0.12305604       0.13101970
         0.78912813       1.04275474       1.44546222       1.16046728       1.48966929       2.45021874       1.98417232       1.51057253       2.86926631       1.77286119       1.11599704       1.34350076       1.85583719       1.76518146       0.80398816       1.27741928       2.64931828       1.50747004       1.10538383       1.34700610
         1.68917308       1.84477031       1.55335242       2.10478583       2.29733843       0.88825570       0.88428952       1.31085625       0.81269133       0.99346727       0.76298316       0.47305245       0.55118547       0.51086800       0.66750272       0.51188597       0.44716253       0.62660716       0.53645080       0.41768605
         0.48176560       0.40311023       0.16974196       0.23752096       0.13723273       0.16021157       0.09773644       0.09153505       0.07980093       0.08920152
         1.13481676       1.47303179       1.22312741       0.96712574       1.20862508       2.12557330       1.49472681       2.84804366       2.47101204       1.46237910       1.89055642       1.80145340       2.24039704       1.96816255       0.94655739       0.93035417       1.80474547       1.51531092       1.72616724       1.59934054
         2.11085878       1.64692698       1.86564503       2.23445778       2.83716603       1.74313437       0.97803155       1.00820426       1.34724543       1.13119609       0.67230033       0.41420076       0.30762816       0.36124940       0.56242996       0.55255505       0.52911377       0.70729414       0.62028925       0.51766049
         0.39553832       0.35118498       0.20170852       0.18809317       0.08883201       0.05494193       0.09523452       0.08459651       0.06867195       0.07122165
         1.48830341       1.66709603       2.12537289       1.72766259       1.39494760       1.75810591       2.46568906       2.12129760       1.57825074       1.27311251       1.60951853       2.27057675       2.10160432       2.48336430       1.10374511       0.64914882       1.94258032       1.91235835       2.90197898       2.44948390
         3.07273150       2.76646239       2.96696120       2.59702520       4.31160619       1.58122665       0.86866643       1.20745836       1.21392210       1.07861703       0.75529165       0.86089446       0.78584456       0.88000766       0.77219922       0.79524482       0.36821806       0.29629247       0.41099274       0.29743334
         0.30002282       0.31801310       0.20774080       0.14235155       0.09537502       0.06648390       0.09955462       0.10780062       0.09039239       0.06520060
         1.92955453       1.39197265       1.91842270       1.37532698       0.91943868       1.54104931       1.88581010       1.97612216       1.43006874       1.39526038       1.93558570       1.40459370       2.10290336       2.02890277       1.82754694       1.72471685       1.99475474       2.41985395       2.62958850       2.42638763
         2.99047914       2.59027437       3.21830463       4.52169798       2.65327024       2.12796748       1.78760638       1.47255219       1.02686777       1.25926408       1.52705776       0.88554557       1.04136464       1.10419664       0.78253411       0.66997319       0.35175086       0.24461387       0.21461591       0.28189393
         0.32894233       0.54389400       0.25748207       0.26052719       0.11100618       0.10749330       0.11626245       0.08821987       0.09770362       0.10852813
         2.05561722       2.71670526       2.91729294       3.49352067       2.38651334       1.91728745       1.22534886       1.43897450       0.81535535       0.61793925       0.90068926       1.07786921       1.69236730       2.82595611       2.39877218       2.29101181       2.90026444       2.74337329       3.42273229       2.88608043
         3.17076859       3.89604101       3.04520788       2.05050794       3.39407642       2.53369776       2.92629930       2.38739409       2.00317108       1.82653514       2.16061530       1.09800644       1.49696639       0.98874264       1.40354682       1.29790096       0.44778550       0.46482949       0.31128992       0.39907804
         0.39038804       0.35910242       0.32301966       0.29387798       0.12278602       0.05266712       0.08831611       0.10854091       0.12333344       0.09162977
         2.27998156       4.87280149       2.74534274       3.49861581       2.41020335       1.54948776       2.27348267       0.74199688       1.44160235       1.12998791       1.03473459       0.92663058       1.46624288       2.88789921       3.03810136       2.36411127       3.09905710       3.12047052       2.74992871       4.02478874
         3.21729689       3.37066032       2.33744471       1.65092268       2.44366856       5.06663574       4.16865029       2.55946857       1.36461290       1.89392605       1.43765303       1.98993502       1.62128693       0.88350693       1.18396928       0.78164884       0.43556009       0.53258934       0.48648808       0.60419618
         0.46377527       0.34358982       0.57668501       0.19683405       0.10743786       0.06810188       0.08837286       0.16645069       0.13005964       0.24955042
         2.33101459       2.25645909       2.35301355       2.83744921       2.38714757       1.94630147       1.29626259       1.53183338       1.58829737       1.85604482       1.89273847       2.16920271       1.65902937       2.11717527       3.74750797       2.74248049       3.94252301       3.71211844       3.77075266       5.48414408
         4.72088908       4.50095132       3.03009240       2.62343665       2.95938727       3.05594903       4.07519526       2.64357725       2.18783920       2.05433029       1.68271671       2.09144324       1.09814481       1.02736324       0.95122544       0.77819611       0.87034112       0.88885448       0.57719335       0.49741655
         0.34032871       0.34100793       0.34162148       0.24142506       0.20281243       0.16769578       0.15402090       0.24476424       0.23388885       0.27939996
         1.95533575       2.06586361       2.50965697       2.07077077       1.91237319       2.62664858       2.16920417       1.82560801       2.19247310       2.51367708       3.75962078       5.16755733       3.21055683       3.86109826       3.45244593       2.82134520       4.60755821       2.70050788       4.21852330       3.24496004
         4.63920487       5.39772517       3.05718638       3.65004142       3.68290933       2.40112357       2.12618037       2.99537704       2.82772057       3.96836510       3.69499108       2.22621783       2.01204582       1.60274906       0.89468868       0.56153760       0.73554108       0.95356250       1.12534766       0.49810484
         0.71052359       0.40882418       0.51205265       0.28538228       0.23416298       0.24276052       0.18677740       0.16076233       0.32223960       0.16650446
         4.37157539       2.83582997       2.14005442       1.78723323       1.42032615       1.39084694       1.89869487       2.78086840       2.73970874       2.43740299       3.34353854       2.80392792       3.44840368       4.35870840       6.06865155       4.07381479       4.96972613       3.77861828       4.16272110       4.94449006
         3.45281573       3.81014808       3.83338444       3.37664584       3.98762572       2.29079806       1.92621236       2.80900937       2.44464211       3.40003864       4.33702568       3.21780630       3.31166315       1.66833165       0.90874860       1.18970420       0.63538930       0.99592990       1.39976151       1.05767618
         0.77410907       0.71193732       0.75364066       0.51580095       0.32575622       0.21911182       0.19561048       0.18829914       0.24493675       0.32110394
         3.13861040       3.12876631       2.32508027       1.50376712       1.00274411       1.64883070       3.20520750       2.41623025       3.12973979       3.25845404       2.42385699       2.72892584       4.80893930       3.28907689       5.17547817       7.31481405       8.36951402       4.45275646       3.40864806       3.93719321
         3.38545018       3.74314922       3.40200593       2.48409129       2.56298094       2.62751039       1.36255081       2.26306864       3.82519166       5.40075328       3.98866667       3.89891963       3.00527440       1.92604756       1.19510664       1.28796537       0.97359463       0.95850745       1.01677576       1.21832898
         1.92543523       1.26920613       0.84560656       0.36743307       0.29277377       0.24825983       0.26768633       0.35545899       0.21937830       0.24893296
         4.78417822       3.98955002       3.36469813       2.68054448       1.78208609       2.17451872       3.04203228       3.07027396       2.92170209       2.59286961       3.04904134       3.09547396       2.93227328       3.69958449       5.20541308       6.92686729       8.75775375       4.25803498       3.83173884       3.04156776
         2.68773360       2.96240237       3.18988438       3.34506829       3.40421943       1.59664238       2.49164952       2.41661630       5.06378401       4.93657752       4.25517187       3.11407012       3.89578486       3.30622009       1.90514783       1.34110877       1.28175140       1.42948345       2.21253777       1.48911827
         1.51184574       2.50911206       1.07182882       0.63770762       0.30370235       0.24733588       0.27944515       0.18093984       0.30120093       0.20889955
         5.08570702       3.15663459       3.38541105       2.85322910       2.84314012       2.95667397       3.36531952       3.63578628       2.65729770       2.83059688       3.97808075       2.22773603       3.17091708       2.67160094       2.15364639       2.85208355       3.73344726       4.34191565       4.05305720       3.67570775
         3.21909676       4.22479104       2.92708203       2.86640228       2.24286788       1.39763320       1.61937430       2.87240077       2.76135688       3.55160990       5.86016758       5.60062954       5.54965831       4.14606102       2.20526089       1.81687320       1.09249015       1.07454636       1.17192254       1.74023093
         1.38797934       1.39605842       1.13960786       1.02458523       0.80643299       0.30442835       0.29828253       0.22065282       0.18806293       0.18714485
         8.82056596       5.33128207       2.62530080       2.38534506       2.16014482       2.23859232       2.67036985       3.04567473       3.10467064       4.71759710       3.81409891       3.50931105       2.29397732       1.98791296       1.34799409       3.08607973       4.39390853       5.04410568       2.62072264       2.47385504
         1.80567033       2.15309122       2.30549520       2.58710050       1.44286490       1.90679118       1.93833461       2.56898719       3.39645923       6.17490254       5.74482598       6.21031453       4.05607060       3.49473704       2.80285342       1.50613848       1.19925664       1.85607608       1.42771916       2.11285263