BEGIN options
END options

BEGIN griddata
  icelltype
    INTERNAL  FACTOR  1
      0  0  0  0  0  0  0  0  0  0  0  0  0  0  0  0  0  0  0  0
    0  0  0  0  0  0  0  0  0  0  0  0  0  0  0  0  0  0  0  0
    0  0  0  0  0  0  0  0  0  0
    0  0  0  0  0  0  0  0  0  0  0  0  0  0  0  0  0  0  0  0
    0  0  0  0  0  0  0  0  0  0  0  0  0  0  0  0  0  0  0  0
    0  0  0  0  0  0  0  0  0  0
    0  0  0  0  0  0  0  0  0  0  0  0  0  0  0  0  0  0  0  0
    0  0  0  0  0  0  0  0  0  0  0  0  0  0  0  0  0  0  0  0
    0  0  0  0  0  0  0  0  0  0
    0  0  0  0  0  0  0  0  0  0  0  0  0  0  0  0  0  0  0  0
    0  0  0  0  0  0  0  0  0  0  0  0  0  0  0  0  0  0  0  0
    0  0  0  0  0  0  0  0  0  0
    0  0  0  0  0  0  0  0  0  0  0  0  0  0  0  0  0  0  0  0
    0  0  0  0  0  0  0  0  0  0  0  0  0  0  0  0  0  0  0  0
    0  0  0  0  0  0  0  0  0  0
    0  0  0  0  0  0  0  0  0  0  0  0  0  0  0  0  0  0  0  0
    0  0  0  0  0  0  0  0  0  0  0  0  0  0  0  0  0  0  0  0
    0  0  0  0  0  0  0  0  0  0
    0  0  0  0  0  0  0  0  0  0  0  0  0  0  0  0  0  0  0  0
    0  0  0  0  0  0  0  0  0  0  0  0  0  0  0  0  0  0  0  0
    0  0  0  0  0  0  0  0  0  0
    0  0  0  0  0  0  0  0  0  0  0  0  0  0  0  0  0  0  0  0
    0  0  0  0  0  0  0  0  0  0  0  0  0  0  0  0  0  0  0  0
    0  0  0  0  0  0  0  0  0  0
    0  0  0  0  0  0  0  0  0  0  0  0  0  0  0  0  0  0  0  0
    0  0  0  0  0  0  0  0  0  0  0  0  0  0  0  0  0  0  0  0
    0  0  0  0  0  0  0  0  0  0
    0  0  0  0  0  0  0  0  0  0  0  0  0  0  0  0  0  0  0  0
    0  0  0  0  0  0  0  0  0  0  0  0  0  0  0  0  0  0  0  0
    0  0  0  0  0  0  0  0  0  0
    0  0  0  0  0  0  0  0  0  0  0  0  0  0  0  0  0  0  0  0
    0  0  0  0  0  0  0  0  0  0  0  0  0  0  0  0  0  0  0  0
    0  0  0  0  0  0  0  0  0  0
    0  0  0  0  0  0  0  0  0  0  0  0  0  0  0  0  0  0  0  0
    0  0  0  0  0  0  0  0  0  0  0  0  0  0  0  0  0  0  0  0
    0  0  0  0  0  0  0  0  0  0
    0  0  0  0  0  0  0  0  0  0  0  0  0  0  0  0  0  0  0  0
    0  0  0  0  0  0  0  0  0  0  0  0  0  0  0  0  0  0  0  0
    0  0  0  0  0  0  0  0  0  0
    0  0  0  0  0  0  0  0  0  0  0  0  0  0  0  0  0  0  0  0
    0  0  0  0  0  0  0  0  0  0  0  0  0  0  0  0  0  0  0  0
    0  0  0  0  0  0  0  0  0  0
    0  0  0  0  0  0  0  0  0  0  0  0  0  0  0  0  0  0  0  0
    0  0  0  0  0  0  0  0  0  0  0  0  0  0  0  0  0  0  0  0
    0  0  0  0  0  0  0  0  0  0
    0  0  0  0  0  0  0  0  0  0  0  0  0  0  0  0  0  0  0  0
    0  0  0  0  0  0  0  0  0  0  0  0  0  0  0  0  0  0  0  0
    0  0  0  0  0  0  0  0  0  0
    0  0  0  0  0  0  0  0  0  0  0  0  0  0  0  0  0  0  0  0
    0  0  0  0  0  0  0  0  0  0  0  0  0  0  0  0  0  0  0  0
    0  0  0  0  0  0  0  0  0  0
    0  0  0  0  0  0  0  0  0  0  0  0  0  0  0  0  0  0  0  0
    0  0  0  0  0  0  0  0  0  0  0  0  0  0  0  0  0  0  0  0
    0  0  0  0  0  0  0  0  0  0
    0  0  0  0  0  0  0  0  0  0  0  0  0  0  0  0  0  0  0  0
    0  0  0  0  0  0  0  0  0  0  0  0  0  0  0  0  0  0  0  0
    0  0  0  0  0  0  0  0  0  0
    0  0  0  0  0  0  0  0  0  0  0  0  0  0  0  0  0  0  0  0
    0  0  0  0  0  0  0  0  0  0  0  0  0  0  0  0  0  0  0  0
    0  0  0  0  0  0  0  0  0  0
    0  0  0  0  0  0  0  0  0  0  0  0  0  0  0  0  0  0  0  0
    0  0  0  0  0  0  0  0  0  0  0  0  0  0  0  0  0  0  0  0
    0  0  0  0  0  0  0  0  0  0
    0  0  0  0  0  0  0  0  0  0  0  0  0  0  0  0  0  0  0  0
    0  0  0  0  0  0  0  0  0  0  0  0  0  0  0  0  0  0  0  0
    0  0  0  0  0  0  0  0  0  0
    0  0  0  0  0  0  0  0  0  0  0  0  0  0  0  0  0  0  0  0
    0  0  0  0  0  0  0  0  0  0  0  0  0  0  0  0  0  0  0  0
    0  0  0  0  0  0  0  0  0  0
    0  0  0  0  0  0  0  0  0  0  0  0  0  0  0  0  0  0  0  0
    0  0  0  0  0  0  0  0  0  0  0  0  0  0  0  0  0  0  0  0
    0  0  0  0  0  0  0  0  0  0
    0  0  0  0  0  0  0  0  0  0  0  0  0  0  0  0  0  0  0  0
    0  0  0  0  0  0  0  0  0  0  0  0  0  0  0  0  0  0  0  0
    0  0  0  0  0  0  0  0  0  0
    0  0  0  0  0  0  0  0  0  0  0  0  0  0  0  0  0  0  0  0
    0  0  0  0  0  0  0  0  0  0  0  0  0  0  0  0  0  0  0  0
    0  0  0  0  0  0  0  0  0  0
    0  0  0  0  0  0  0  0  0  0  0  0  0  0  0  0  0  0  0  0
    0  0  0  0  0  0  0  0  0  0  0  0  0  0  0  0  0  0  0  0
    0  0  0  0  0  0  0  0  0  0
    0  0  0  0  0  0  0  0  0  0  0  0  0  0  0  0  0  0  0  0
    0  0  0  0  0  0  0  0  0  0  0  0  0  0  0  0  0  0  0  0
    0  0  0  0  0  0  0  0  0  0
    0  0  0  0  0  0  0  0  0  0  0  0  0  0  0  0  0  0  0  0
    0  0  0  0  0  0  0  0  0  0  0  0  0  0  0  0  0  0  0  0
    0  0  0  0  0  0  0  0  0  0
    0  0  0  0  0  0  0  0  0  0  0  0  0  0  0  0  0  0  0  0
    0  0  0  0  0  0  0  0  0  0  0  0  0  0  0  0  0  0  0  0
    0  0  0  0  0  0  0  0  0  0
    0  0  0  0  0  0  0  0  0  0  0  0  0  0  0  0  0  0  0  0
    0  0  0  0  0  0  0  0  0  0  0  0  0  0  0  0  0  0  0  0
    0  0  0  0  0  0  0  0  0  0
    0  0  0  0  0  0  0  0  0  0  0  0  0  0  0  0  0  0  0  0
    0  0  0  0  0  0  0  0  0  0  0  0  0  0  0  0  0  0  0  0
    0  0  0  0  0  0  0  0  0  0
    0  0  0  0  0  0  0  0  0  0  0  0  0  0  0  0  0  0  0  0
    0  0  0  0  0  0  0  0  0  0  0  0  0  0  0  0  0  0  0  0
    0  0  0  0  0  0  0  0  0  0
    0  0  0  0  0  0  0  0  0  0  0  0  0  0  0  0  0  0  0  0
    0  0  0  0  0  0  0  0  0  0  0  0  0  0  0  0  0  0  0  0
    0  0  0  0  0  0  0  0  0  0
    0  0  0  0  0  0  0  0  0  0  0  0  0  0  0  0  0  0  0  0
    0  0  0  0  0  0  0  0  0  0  0  0  0  0  0  0  0  0  0  0
    0  0  0  0  0  0  0  0  0  0
    0  0  0  0  0  0  0  0  0  0  0  0  0  0  0  0  0  0  0  0
    0  0  0  0  0  0  0  0  0  0  0  0  0  0  0  0  0  0  0  0
    0  0  0  0  0  0  0  0  0  0
    0  0  0  0  0  0  0  0  0  0  0  0  0  0  0  0  0  0  0  0
    0  0  0  0  0  0  0  0  0  0  0  0  0  0  0  0  0  0  0  0
    0  0  0  0  0  0  0  0  0  0
    0  0  0  0  0  0  0  0  0  0  0  0  0  0  0  0  0  0  0  0
    0  0  0  0  0  0  0  0  0  0  0  0  0  0  0  0  0  0  0  0
    0  0  0  0  0  0  0  0  0  0
    0  0  0  0  0  0  0  0  0  0  0  0  0  0  0  0  0  0  0  0
    0  0  0  0  0  0  0  0  0  0  0  0  0  0  0  0  0  0  0  0
    0  0  0  0  0  0  0  0  0  0
    0  0  0  0  0  0  0  0  0  0  0  0  0  0  0  0  0  0  0  0
    0  0  0  0  0  0  0  0  0  0  0  0  0  0  0  0  0  0  0  0
    0  0  0  0  0  0  0  0  0  0
    0  0  0  0  0  0  0  0  0  0  0  0  0  0  0  0  0  0  0  0
    0  0  0  0  0  0  0  0  0  0  0  0  0  0  0  0  0  0  0  0
    0  0  0  0  0  0  0  0  0  0
    0  0  0  0  0  0  0  0  0  0  0  0  0  0  0  0  0  0  0  0
    0  0  0  0  0  0  0  0  0  0  0  0  0  0  0  0  0  0  0  0
    0  0  0  0  0  0  0  0  0  0
    0  0  0  0  0  0  0  0  0  0  0  0  0  0  0  0  0  0  0  0
    0  0  0  0  0  0  0  0  0  0  0  0  0  0  0  0  0  0  0  0
    0  0  0  0  0  0  0  0  0  0
    0  0  0  0  0  0  0  0  0  0  0  0  0  0  0  0  0  0  0  0
    0  0  0  0  0  0  0  0  0  0  0  0  0  0  0  0  0  0  0  0
    0  0  0  0  0  0  0  0  0  0
    0  0  0  0  0  0  0  0  0  0  0  0  0  0  0  0  0  0  0  0
    0  0  0  0  0  0  0  0  0  0  0  0  0  0  0  0  0  0  0  0
    0  0  0  0  0  0  0  0  0  0
    0  0  0  0  0  0  0  0  0  0  0  0  0  0  0  0  0  0  0  0
    0  0  0  0  0  0  0  0  0  0  0  0  0  0  0  0  0  0  0  0
    0  0  0  0  0  0  0  0  0  0
    0  0  0  0  0  0  0  0  0  0  0  0  0  0  0  0  0  0  0  0
    0  0  0  0  0  0  0  0  0  0  0  0  0  0  0  0  0  0  0  0
    0  0  0  0  0  0  0  0  0  0
    0  0  0  0  0  0  0  0  0  0  0  0  0  0  0  0  0  0  0  0
    0  0  0  0  0  0  0  0  0  0  0  0  0  0  0  0  0  0  0  0
    0  0  0  0  0  0  0  0  0  0
    0  0  0  0  0  0  0  0  0  0  0  0  0  0  0  0  0  0  0  0
    0  0  0  0  0  0  0  0  0  0  0  0  0  0  0  0  0  0  0  0
    0  0  0  0  0  0  0  0  0  0
    0  0  0  0  0  0  0  0  0  0  0  0  0  0  0  0  0  0  0  0
    0  0  0  0  0  0  0  0  0  0  0  0  0  0  0  0  0  0  0  0
    0  0  0  0  0  0  0  0  0  0
    0  0  0  0  0  0  0  0  0  0  0  0  0  0  0  0  0  0  0  0
    0  0  0  0  0  0  0  0  0  0  0  0  0  0  0  0  0  0  0  0
    0  0  0  0  0  0  0  0  0  0
    0  0  0  0  0  0  0  0  0  0  0  0  0  0  0  0  0  0  0  0
    0  0  0  0  0  0  0  0  0  0  0  0  0  0  0  0  0  0  0  0
    0  0  0  0  0  0  0  0  0  0
    0  0  0  0  0  0  0  0  0  0  0  0  0  0  0  0  0  0  0  0
    0  0  0  0  0  0  0  0  0  0  0  0  0  0  0  0  0  0  0  0
    0  0  0  0  0  0  0  0  0  0
    0  0  0  0  0  0  0  0  0  0  0  0  0  0  0  0  0  0  0  0
    0  0  0  0  0  0  0  0  0  0  0  0  0  0  0  0  0  0  0  0
    0  0  0  0  0  0  0  0  0  0
    0  0  0  0  0  0  0  0  0  0  0  0  0  0  0  0  0  0  0  0
    0  0  0  0  0  0  0  0  0  0  0  0  0  0  0  0  0  0  0  0
    0  0  0  0  0  0  0  0  0  0
    0  0  0  0  0  0  0  0  0  0  0  0  0  0  0  0  0  0  0  0
    0  0  0  0  0  0  0  0  0  0  0  0  0  0  0  0  0  0  0  0
    0  0  0  0  0  0  0  0  0  0
    0  0  0  0  0  0  0  0  0  0  0  0  0  0  0  0  0  0  0  0
    0  0  0  0  0  0  0  0  0  0  0  0  0  0  0  0  0  0  0  0
    0  0  0  0  0  0  0  0  0  0
    0  0  0  0  0  0  0  0  0  0  0  0  0  0  0  0  0  0  0  0
    0  0  0  0  0  0  0  0  0  0  0  0  0  0  0  0  0  0  0  0
    0  0  0  0  0  0  0  0  0  0
    0  0  0  0  0  0  0  0  0  0  0  0  0  0  0  0  0  0  0  0
    0  0  0  0  0  0  0  0  0  0  0  0  0  0  0  0  0  0  0  0
    0  0  0  0  0  0  0  0  0  0
    0  0  0  0  0  0  0  0  0  0  0  0  0  0  0  0  0  0  0  0
    0  0  0  0  0  0  0  0  0  0  0  0  0  0  0  0  0  0  0  0
    0  0  0  0  0  0  0  0  0  0
    0  0  0  0  0  0  0  0  0  0  0  0  0  0  0  0  0  0  0  0
    0  0  0  0  0  0  0  0  0  0  0  0  0  0  0  0  0  0  0  0
    0  0  0  0  0  0  0  0  0  0
    0  0  0  0  0  0  0  0  0  0  0  0  0  0  0  0  0  0  0  0
    0  0  0  0  0  0  0  0  0  0  0  0  0  0  0  0  0  0  0  0
    0  0  0  0  0  0  0  0  0  0
    0  0  0  0  0  0  0  0  0  0  0  0  0  0  0  0  0  0  0  0
    0  0  0  0  0  0  0  0  0  0  0  0  0  0  0  0  0  0  0  0
    0  0  0  0  0  0  0  0  0  0
    0  0  0  0  0  0  0  0  0  0  0  0  0  0  0  0  0  0  0  0
    0  0  0  0  0  0  0  0  0  0  0  0  0  0  0  0  0  0  0  0
    0  0  0  0  0  0  0  0  0  0
    0  0  0  0  0  0  0  0  0  0  0  0  0  0  0  0  0  0  0  0
    0  0  0  0  0  0  0  0  0  0  0  0  0  0  0  0  0  0  0  0
    0  0  0  0  0  0  0  0  0  0
    0  0  0  0  0  0  0  0  0  0  0  0  0  0  0  0  0  0  0  0
    0  0  0  0  0  0  0  0  0  0  0  0  0  0  0  0  0  0  0  0
    0  0  0  0  0  0  0  0  0  0
    0  0  0  0  0  0  0  0  0  0  0  0  0  0  0  0  0  0  0  0
    0  0  0  0  0  0  0  0  0  0  0  0  0  0  0  0  0  0  0  0
    0  0  0  0  0  0  0  0  0  0
    0  0  0  0  0  0  0  0  0  0  0  0  0  0  0  0  0  0  0  0
    0  0  0  0  0  0  0  0  0  0  0  0  0  0  0  0  0  0  0  0
    0  0  0  0  0  0  0  0  0  0
    0  0  0  0  0  0  0  0  0  0  0  0  0  0  0  0  0  0  0  0
    0  0  0  0  0  0  0  0  0  0  0  0  0  0  0  0  0  0  0  0
    0  0  0  0  0  0  0  0  0  0
    0  0  0  0  0  0  0  0  0  0  0  0  0  0  0  0  0  0  0  0
    0  0  0  0  0  0  0  0  0  0  0  0  0  0  0  0  0  0  0  0
    0  0  0  0  0  0  0  0  0  0
    0  0  0  0  0  0  0  0  0  0  0  0  0  0  0  0  0  0  0  0
    0  0  0  0  0  0  0  0  0  0  0  0  0  0  0  0  0  0  0  0
    0  0  0  0  0  0  0  0  0  0
    0  0  0  0  0  0  0  0  0  0  0  0  0  0  0  0  0  0  0  0
    0  0  0  0  0  0  0  0  0  0  0  0  0  0  0  0  0  0  0  0
    0  0  0  0  0  0  0  0  0  0
    0  0  0  0  0  0  0  0  0  0  0  0  0  0  0  0  0  0  0  0
    0  0  0  0  0  0  0  0  0  0  0  0  0  0  0  0  0  0  0  0
    0  0  0  0  0  0  0  0  0  0
    0  0  0  0  0  0  0  0  0  0  0  0  0  0  0  0  0  0  0  0
    0  0  0  0  0  0  0  0  0  0  0  0  0  0  0  0  0  0  0  0
    0  0  0  0  0  0  0  0  0  0
    0  0  0  0  0  0  0  0  0  0  0  0  0  0  0  0  0  0  0  0
    0  0  0  0  0  0  0  0  0  0  0  0  0  0  0  0  0  0  0  0
    0  0  0  0  0  0  0  0  0  0
    0  0  0  0  0  0  0  0  0  0  0  0  0  0  0  0  0  0  0  0
    0  0  0  0  0  0  0  0  0  0  0  0  0  0  0  0  0  0  0  0
    0  0  0  0  0  0  0  0  0  0
    0  0  0  0  0  0  0  0  0  0  0  0  0  0  0  0  0  0  0  0
    0  0  0  0  0  0  0  0  0  0  0  0  0  0  0  0  0  0  0  0
    0  0  0  0  0  0  0  0  0  0
    0  0  0  0  0  0  0  0  0  0  0  0  0  0  0  0  0  0  0  0
    0  0  0  0  0  0  0  0  0  0  0  0  0  0  0  0  0  0  0  0
    0  0  0  0  0  0  0  0  0  0
    0  0  0  0  0  0  0  0  0  0  0  0  0  0  0  0  0  0  0  0
    0  0  0  0  0  0  0  0  0  0  0  0  0  0  0  0  0  0  0  0
    0  0  0  0  0  0  0  0  0  0
    0  0  0  0  0  0  0  0  0  0  0  0  0  0  0  0  0  0  0  0
    0  0  0  0  0  0  0  0  0  0  0  0  0  0  0  0  0  0  0  0
    0  0  0  0  0  0  0  0  0  0
  k
    INTERNAL  FACTOR  1.0
           3.31153344       4.70634379       6.17535904       2.98413486       3.85145805       3.13927520       2.68334208       3.64297102       1.98538405       2.51738541       2.57727500       4.11453375       1.92718469       0.96505410       1.41206690       1.77157019       2.52280149       1.55050470       1.25028213       0.54636013
         0.49979014       0.56644258       0.44243880       0.52003082       0.55512382       0.59605118       0.33772258       0.45526351       0.44396027       0.41282358       0.34988106       0.40333225       0.26775774       0.48974604       0.34672161       0.37645460       0.48313117       0.40195364       0.44424030       0.46433287
         0.50416825       0.51611563       0.31941872       0.37472427       0.51782963       0.39114078       0.35732675       0.28872127       0.26284499       0.29335700
         6.08207225       6.04091865       6.65918311       4.87577018       3.77646694       4.18490901       3.50605702       2.15607418       1.86192489       1.47964549       2.08047620       1.52097974       1.65668537       0.81817974       0.73968567       1.85050589       2.07361606       2.06882107       0.82327167       0.54778014
         0.37654140       0.30177425       0.27246278       0.30448056       0.38450807       0.45329041       0.36438920       0.51086763       0.26402514       0.19627391       0.21878634       0.25891885       0.29088220       0.56742652       0.74011062       0.39176741       0.39494372       0.54898421       0.46663983       0.69317901
         0.61698132       0.95778912       0.52241529       0.39997778       0.33661298       0.54186565       0.27155048       0.37312373       0.41967326       0.31821452
         8.04895723       4.80375267       3.66677895       4.58577313       6.30636083       5.99508001       3.35091947       1.78009766       1.04240410       0.81643102       1.46128275       1.22580656       1.07375373       0.96975573       0.77432816       0.44905629       1.24384262       1.02639563       0.68920216       0.44174634
         0.35503176       0.23491464       0.23324296       0.36471890       0.48400025       0.48208050       0.42994130       0.35463408       0.34167825       0.26835459       0.18589251       0.25898158       0.29644678       0.74114249       0.94058628       0.70028998       0.32676674       0.50007414       0.80644949       0.47859426
         0.59236557       0.67607384       0.87877676       0.62356803       0.31225956       0.33244142       0.39431863       0.32221738       0.30481772       0.38251189
         7.79833631       3.97486996       3.33009233       5.09363231       5.27109793       5.75272467       3.66526974       2.19217374       1.09992266       0.81363801       1.48679293       1.00925660       1.25896961       0.96914468       0.75361271       0.72631795       0.77024898       0.98498640       0.65707375       0.33660501
         0.48402276       0.60438824       0.69063238       0.60851652       0.33564060       0.59350995       0.60522808       0.63237151       0.52762472       0.46852361       0.35535905       0.53837684       0.64063581       0.63322329       0.75994180       0.48977133       0.70394910       0.52151741       0.41823237       0.42299675
         0.39449658       0.46493060       0.52831361       0.61104677       0.56875454       0.39094925       0.29076049       0.60681903       0.55677079       0.36798935
         4.85656053       3.40034669       2.25579608       2.75067557       3.92631342       3.21398321       4.33244385       2.41155613       1.65515185       1.02658475       1.02668758       0.83157873       0.93278773       0.60420261       0.64125447       1.07350443       0.84201632       1.05453624       0.90295625       0.83748654
         0.61919536       0.52010891       0.56120035       0.48393308       0.39399507       0.61161260       0.77113906       0.69601918       0.56224300       0.91482332       0.53360762       0.91590053       0.57207804       0.48322596       0.67511794       0.81303161       0.53332271       0.35249342       0.29895871       0.21574039
         0.28398235       0.22718454       0.34000731       0.49890856       0.31575596       0.35525896       0.25646906       0.42060602       0.44415186       0.22695409
         4.84440356       2.11780326       1.59854645       1.90296164       2.57500914       2.24431353       2.41291354       1.48927354       1.50305496       1.07927998       1.14524499       0.50135106       0.44248514       0.62238514       0.79369867       0.92673400       1.16404109       1.44172612       2.11097639       1.18147860
         0.75730770       0.67779400       0.86180405       0.68329215       0.88102610       0.80590472       0.77445746       0.82794508       0.55667621       0.70171067       0.61903431       0.64991029       0.66395768       0.46326270       0.68122664       0.54470326       0.25637316       0.23313283       0.10702151       0.19616860
         0.18797589       0.20612966       0.37757891       0.29940575       0.24095846       0.31410777       0.17444677       0.18253289       0.27458780       0.19127559
         3.00271165       1.89097405       1.90189064       1.44297256       1.76914925       2.13057029       2.19770254       1.80188007       1.87637721       1.37503910       0.65275856       0.68663831       0.37194084       0.40775854       0.50067210       0.75026562       1.04155486       1.26266334       1.23271355       1.25803444
         1.14294130       0.72792973       0.76336165       0.51620662       0.72353067       0.67848151       0.47579387       1.09787147       0.66094886       0.77419576       0.64620717       0.64169868       0.44806701       0.45154933       0.44221180       0.40180198       0.27281233       0.12306301       0.07340237       0.18969690
         0.16102636       0.27550410       0.43903282       0.33068530       0.18985410       0.19892461       0.13243153       0.15366209       0.14225338       0.13483214
         2.08575931       1.84576106       2.09248219       2.15537262       2.72077877       2.27089261       3.09072573       1.39056133       1.21982139       1.45423011       0.78811133       0.63342128       0.49967712       0.41486900       0.68568958       0.64359323       0.89795203       1.38056528       2.14606140       1.60377762
         0.80800713       0.49836948       0.81726741       0.69783463       0.62611119       0.37934416       0.54205967       0.91362504       0.55785319       0.78111672       0.77178972       0.87425901       0.52774628       0.58626331       0.44171490       0.44265749       0.34948858       0.14189458       0.08152347       0.16371449
         0.24079164       0.33323212       0.38464537       0.21946540       0.23773321       0.19501369       0.15662994       0.11725982       0.13576926       0.13726731
         3.32183337       2.25004685       2.81608919       3.41680842       2.68016696       3.89732423       1.99126607       1.58028314       1.56725820       1.31792169       0.86770032       0.58213346       0.48885229       0.46575764       0.56999765       0.77862182       1.13210642       2.01647570       1.74253905       1.33034879
         1.07256680       0.59214623       0.74294981       0.46272648       0.45576126       0.54631945       0.60129636       0.77098202       0.86555348       0.61347788       0.74979654       0.94701722       0.42499531       0.50461226       0.25986389       0.24673886       0.19366916       0.10359001       0.11632294       0.25960533
         0.22266013       0.34048137       0.22597530       0.24301133       0.13430511       0.27224516       0.21417554       0.15539189       0.23290088       0.30332561
         2.78604088       3.06485268       3.16215631       2.48308305       3.11281301       2.06067925       1.69838350       2.04657122       1.68604325       1.40966973       0.78996642       0.69634106       0.62579642       0.71723713       0.85794753       1.40411864       1.31915068       1.34484670       1.97187806       1.00330132
         0.94678568       0.73548721       0.79525539       0.63682614       0.56630781       0.70192990       0.73778917       1.11919001       1.16713699       0.98008361       0.93987316       0.62538723       0.64316653       0.30653699       0.25637459       0.21915043       0.26629581       0.22334582       0.19862431       0.27890721
         0.26556823       0.27180443       0.18091407       0.15395427       0.18921070       0.11559701       0.11562096       0.09916348       0.15783328       0.22768591
         2.14139395       1.80946480       2.08723936       2.00841616       1.98782208       1.06824288       1.41408381       1.80738724       1.89600829       2.86290222       0.88706890       0.49630007       0.66921991       0.54866716       0.89310740       0.75992742       1.50579282       1.86225971       2.14327367       2.14300077
         1.20673325       1.10876133       0.97156502       0.68534783       0.77861460       0.83812182       0.64927853       0.83730094       1.43445881       1.48954883       0.85959718       0.80906810       0.68306651       0.55714078       0.44840951       0.60029323       0.41649101       0.37538679       0.31446320       0.36565229
         0.34246277       0.29246475       0.26449029       0.18911221       0.24616306       0.19661838       0.17457829       0.08822558       0.19615751       0.15565751
         2.85527363       2.60091495       2.29595155       1.81850783       1.41832499       1.39688666       1.41356607       1.75886364       1.97147102       1.43349117       1.28197541       0.81641915       1.01741882       0.92691479       0.77332912       1.17090572       1.11003393       1.50860690       2.06239828       1.83043454
         1.27084597       1.15284740       1.24749811       1.38090757       0.92150953       0.63444644       0.56672977       0.89991714       1.14455873       0.75089244       0.59202073       0.63012576       0.77427207       0.80813011       0.45685339       0.48569429       0.65615824       0.47925018       0.31775954       0.29947989
         0.30835996       0.37101108       0.41854424       0.26852325       0.29287821       0.28833462       0.20399847       0.22673319       0.10959582       0.15461437
         2.07716718       1.38276516       1.77709831       1.47861715       1.35532563       1.00468118       1.02458319       1.26251437       1.57407316       1.31651815       1.08569675       1.29918416       0.81251746       1.25415070       1.07764035       1.49076168       1.15871053       1.02390711       1.29072145       1.17748428
         0.65594411       0.98167298       1.45209558       0.86223541       0.61320685       0.77169937       0.97181706       0.71166510       0.69879289       0.61122427       0.88906321       0.81438650       0.80578488       0.90850753       0.50075699       0.58598649       0.80807453       0.37221670       0.33004690       0.26140054
         0.51550210       0.46700420       0.45135897       0.31095743       0.30010931       0.46917335       0.26607909       0.29047177       0.15818401       0.15439518
         1.95140032       1.65769487       1.29933684       1.16192603       1.35985444       0.71297195       1.03918179       1.33815730       1.06713812       1.14115802       1.06089821       1.16670432       1.16649771       1.35958077       1.39751569       1.57215659       0.81502361       1.25437808       0.78502402       0.91556857
         0.57819049       0.73079456       0.67321361       0.77073992       0.64166614       1.12659114       1.68361303       0.67821993       0.88492418       1.06592521       0.80082476       1.14911343       1.05670658       0.78851131       0.76882476       0.58757332       0.58918219       0.48269523       0.48468254       0.35552726
         0.72063328       0.57999137       0.46684326       0.51662470       0.40854201       0.37792778       0.51881775       0.33997169       0.39114943       0.43383499
         2.35456944       1.88470733       1.83388005       1.40278267       1.33005482       0.79084906       0.56882526       0.83419913       1.16012236       1.28740818       1.26073679       1.02332638       2.56662245       1.75225426       1.16193256       1.08854016       0.92788345       0.74090331       0.65663472       0.55960814
         0.71510941       0.52519611       0.54243461       0.49420807       1.00607940       1.37888338       1.60429852       1.13000633       1.14074220       1.43872249       1.48078757       1.04625670       0.61597787       0.77325129       0.94928785       1.09847231       0.72439754       1.00830104       0.55927009       0.80184088
         0.62476196       0.46178873       0.62068054       0.59524619       0.62012639       0.63594273       0.57061920       0.53128006       0.43787473       0.41583438
         2.45338751       1.75857737       1.74616347       2.17731051       1.09428530       0.96185562       1.27842453       0.99705383       1.82183087       1.52032572       1.99976168       1.98767611       1.46271167       1.28883336       1.56633671       1.91138293       1.01838664       0.65179587       0.92642681       0.55830223
         0.63435335       0.74802129       0.32553772       0.80775351       1.11106376       1.30492962       1.83839358       1.34876360       1.31542876       2.42172170       1.37023862       1.19349080       0.78719895       1.08133162       1.91231831       1.25763072       1.19642123       1.13996050       1.25230905       0.67785306
         0.77186936       0.53584154       0.69533044       0.81183207       0.72859665       0.65483139       0.54005228       0.51820717       0.50348492       0.63425605
         1.31781065       1.30465516       1.56325862       1.21497437       1.04926200       0.68227808       0.86672577       1.55971449       2.56037811       2.37628341       2.22370774       1.58103293       2.58413562       1.66588464       1.18112334       0.84271936       0.78512886       0.84575574       0.50431123       0.68566843
         0.95662367       0.73800977       0.55788098       0.96383506       1.11440406       1.14098073       1.07929795       1.07027443       1.81866974       1.77732149       2.20460157       1.78674202       1.69164769       1.39499736       2.14737581       1.58887449       1.34143429       1.19400956       0.65842130       1.65472762
         0.93933061       0.88045300       0.53435151       1.12559873       1.28778824       0.99374382       0.93752169       0.57495050       0.44153841       0.53983298
         0.81675233       1.05586225       1.19997047       1.09507268       0.82502068       0.89744069       0.78147877       1.00762623       1.91585378       2.56478699       2.57051339       2.06276915       1.97543362       1.38753021       1.38243204       1.22928136       0.92304420       1.11901450       0.38520538       0.56715648
         0.93630423       1.21586687       0.90851511       1.28394661       1.10983629       0.91562766       1.08558452       1.64484079       2.45566075       2.19496033       2.48024167       1.83698812       2.11695369       1.69101798       1.85539065       1.57762609       1.76388876       1.53631777       1.17317881       1.00134338
         0.67724241       0.38032530       0.64329956       0.95707819       1.28448456       1.08487400       1.64275497       0.87368095       0.69184924       0.63233962
         1.05207232       0.73426921       1.02894132       0.82007264       0.97550535       0.95365798       0.54095258       1.03943343       1.50059003       1.96073594       1.90255522       1.98374196       1.17688513       1.49752458       2.85047849       2.51396960       1.46054912       1.16787188       0.75135687       0.78560211
         0.81788836       1.16776816       1.46980420       1.36647833       1.52364179       1.60733772       1.39858270       2.09808033       1.88902932       1.97114852       1.85379931       1.20455027       2.47468196       2.82511417       2.72256872       2.32980259       1.66241625       1.27504421       1.40209178       1.18580371
         0.62572168       0.60685091       0.78160363       1.15135147       1.47976115       2.06181252       1.30904079       1.20710424       1.01943536       0.87919797
         1.53374246       0.93903651       0.96099578       1.23910053       0.89040220       0.88386202       1.65119079       1.82274528       3.09951795       1.49843842       1.64766144       1.44720421       1.25441206       1.99113605       3.23000505       2.57053444       2.28740569       1.09738688       0.82647225       1.32415472
         0.96347303       1.16964032       1.63880118       1.96100806       2.39973092       2.49209035       2.86990914       1.67129562       1.48404094       2.48875132       1.81438335       1.60299601       1.74373661       2.77104624       2.60857974       2.33087624       1.49393463       1.15704110       1.10030497       0.96958859