BEGIN options
END options

BEGIN griddata
  icelltype
    INTERNAL  FACTOR  1
      0  0  0  0  0  0  0  0  0  0  0  0  0  0  0  0  0  0  0  0
    0  0  0  0  0  0  0  0  0  0  0  0  0  0  0  0  0  0  0  0
    0  0  0  0  0  0  0  0  0  0
    0  0  0  0  0  0  0  0  0  0  0  0  0  0  0  0  0  0  0  0
    0  0  0  0  0  0  0  0  0  0  0  0  0  0  0  0  0  0  0  0
    0  0  0  0  0  0  0  0  0  0
    0  0  0  0  0  0  0  0  0  0  0  0  0  0  0  0  0  0  0  0
    0  0  0  0  0  0  0  0  0  0  0  0  0  0  0  0  0  0  0  0
    0  0  0  0  0  0  0  0  0  0
    0  0  0  0  0  0  0  0  0  0  0  0  0  0  0  0  0  0  0  0
    0  0  0  0  0  0  0  0  0  0  0  0  0  0  0  0  0  0  0  0
    0  0  0  0  0  0  0  0  0  0
    0  0  0  0  0  0  0  0  0  0  0  0  0  0  0  0  0  0  0  0
    0  0  0  0  0  0  0  0  0  0  0  0  0  0  0  0  0  0  0  0
    0  0  0  0  0  0  0  0  0  0
    0  0  0  0  0  0  0  0  0  0  0  0  0  0  0  0  0  0  0  0
    0  0  0  0  0  0  0  0  0  0  0  0  0  0  0  0  0  0  0  0
    0  0  0  0  0  0  0  0  0  0
    0  0  0  0  0  0  0  0  0  0  0  0  0  0  0  0  0  0  0  0
    0  0  0  0  0  0  0  0  0  0  0  0  0  0  0  0  0  0  0  0
    0  0  0  0  0  0  0  0  0  0
    0  0  0  0  0  0  0  0  0  0  0  0  0  0  0  0  0  0  0  0
    0  0  0  0  0  0  0  0  0  0  0  0  0  0  0  0  0  0  0  0
    0  0  0  0  0  0  0  0  0  0
    0  0  0  0  0  0  0  0  0  0  0  0  0  0  0  0  0  0  0  0
    0  0  0  0  0  0  0  0  0  0  0  0  0  0  0  0  0  0  0  0
    0  0  0  0  0  0  0  0  0  0
    0  0  0  0  0  0  0  0  0  0  0  0  0  0  0  0  0  0  0  0
    0  0  0  0  0  0  0  0  0  0  0  0  0  0  0  0  0  0  0  0
    0  0  0  0  0  0  0  0  0  0
    0  0  0  0  0  0  0  0  0  0  0  0  0  0  0  0  0  0  0  0
    0  0  0  0  0  0  0  0  0  0  0  0  0  0  0  0  0  0  0  0
    0  0  0  0  0  0  0  0  0  0
    0  0  0  0  0  0  0  0  0  0  0  0  0  0  0  0  0  0  0  0
    0  0  0  0  0  0  0  0  0  0  0  0  0  0  0  0  0  0  0  0
    0  0  0  0  0  0  0  0  0  0
    0  0  0  0  0  0  0  0  0  0  0  0  0  0  0  0  0  0  0  0
    0  0  0  0  0  0  0  0  0  0  0  0  0  0  0  0  0  0  0  0
    0  0  0  0  0  0  0  0  0  0
    0  0  0  0  0  0  0  0  0  0  0  0  0  0  0  0  0  0  0  0
    0  0  0  0  0  0  0  0  0  0  0  0  0  0  0  0  0  0  0  0
    0  0  0  0  0  0  0  0  0  0
    0  0  0  0  0  0  0  0  0  0  0  0  0  0  0  0  0  0  0  0
    0  0  0  0  0  0  0  0  0  0  0  0  0  0  0  0  0  0  0  0
    0  0  0  0  0  0  0  0  0  0
    0  0  0  0  0  0  0  0  0  0  0  0  0  0  0  0  0  0  0  0
    0  0  0  0  0  0  0  0  0  0  0  0  0  0  0  0  0  0  0  0
    0  0  0  0  0  0  0  0  0  0
    0  0  0  0  0  0  0  0  0  0  0  0  0  0  0  0  0  0  0  0
    0  0  0  0  0  0  0  0  0  0  0  0  0  0  0  0  0  0  0  0
    0  0  0  0  0  0  0  0  0  0
    0  0  0  0  0  0  0  0  0  0  0  0  0  0  0  0  0  0  0  0
    0  0  0  0  0  0  0  0  0  0  0  0  0  0  0  0  0  0  0  0
    0  0  0  0  0  0  0  0  0  0
    0  0  0  0  0  0  0  0  0  0  0  0  0  0  0  0  0  0  0  0
    0  0  0  0  0  0  0  0  0  0  0  0  0  0  0  0  0  0  0  0
    0  0  0  0  0  0  0  0  0  0
    0  0  0  0  0  0  0  0  0  0  0  0  0  0  0  0  0  0  0  0
    0  0  0  0  0  0  0  0  0  0  0  0  0  0  0  0  0  0  0  0
    0  0  0  0  0  0  0  0  0  0
    0  0  0  0  0  0  0  0  0  0  0  0  0  0  0  0  0  0  0  0
    0  0  0  0  0  0  0  0  0  0  0  0  0  0  0  0  0  0  0  0
    0  0  0  0  0  0  0  0  0  0
    0  0  0  0  0  0  0  0  0  0  0  0  0  0  0  0  0  0  0  0
    0  0  0  0  0  0  0  0  0  0  0  0  0  0  0  0  0  0  0  0
    0  0  0  0  0  0  0  0  0  0
    0  0  0  0  0  0  0  0  0  0  0  0  0  0  0  0  0  0  0  0
    0  0  0  0  0  0  0  0  0  0  0  0  0  0  0  0  0  0  0  0
    0  0  0  0  0  0  0  0  0  0
    0  0  0  0  0  0  0  0  0  0  0  0  0  0  0  0  0  0  0  0
    0  0  0  0  0  0  0  0  0  0  0  0  0  0  0  0  0  0  0  0
    0  0  0  0  0  0  0  0  0  0
    0  0  0  0  0  0  0  0  0  0  0  0  0  0  0  0  0  0  0  0
    0  0  0  0  0  0  0  0  0  0  0  0  0  0  0  0  0  0  0  0
    0  0  0  0  0  0  0  0  0  0
    0  0  0  0  0  0  0  0  0  0  0  0  0  0  0  0  0  0  0  0
    0  0  0  0  0  0  0  0  0  0  0  0  0  0  0  0  0  0  0  0
    0  0  0  0  0  0  0  0  0  0
    0  0  0  0  0  0  0  0  0  0  0  0  0  0  0  0  0  0  0  0
    0  0  0  0  0  0  0  0  0  0  0  0  0  0  0  0  0  0  0  0
    0  0  0  0  0  0  0  0  0  0
    0  0  0  0  0  0  0  0  0  0  0  0  0  0  0  0  0  0  0  0
    0  0  0  0  0  0  0  0  0  0  0  0  0  0  0  0  0  0  0  0
    0  0  0  0  0  0  0  0  0  0
    0  0  0  0  0  0  0  0  0  0  0  0  0  0  0  0  0  0  0  0
    0  0  0  0  0  0  0  0  0  0  0  0  0  0  0  0  0  0  0  0
    0  0  0  0  0  0  0  0  0  0
    0  0  0  0  0  0  0  0  0  0  0  0  0  0  0  0  0  0  0  0
    0  0  0  0  0  0  0  0  0  0  0  0  0  0  0  0  0  0  0  0
    0  0  0  0  0  0  0  0  0  0
    0  0  0  0  0  0  0  0  0  0  0  0  0  0  0  0  0  0  0  0
    0  0  0  0  0  0  0  0  0  0  0  0  0  0  0  0  0  0  0  0
    0  0  0  0  0  0  0  0  0  0
    0  0  0  0  0  0  0  0  0  0  0  0  0  0  0  0  0  0  0  0
    0  0  0  0  0  0  0  0  0  0  0  0  0  0  0  0  0  0  0  0
    0  0  0  0  0  0  0  0  0  0
    0  0  0  0  0  0  0  0  0  0  0  0  0  0  0  0  0  0  0  0
    0  0  0  0  0  0  0  0  0  0  0  0  0  0  0  0  0  0  0  0
    0  0  0  0  0  0  0  0  0  0
    0  0  0  0  0  0  0  0  0  0  0  0  0  0  0  0  0  0  0  0
    0  0  0  0  0  0  0  0  0  0  0  0  0  0  0  0  0  0  0  0
    0  0  0  0  0  0  0  0  0  0
    0  0  0  0  0  0  0  0  0  0  0  0  0  0  0  0  0  0  0  0
    0  0  0  0  0  0  0  0  0  0  0  0  0  0  0  0  0  0  0  0
    0  0  0  0  0  0  0  0  0  0
    0  0  0  0  0  0  0  0  0  0  0  0  0  0  0  0  0  0  0  0
    0  0  0  0  0  0  0  0  0  0  0  0  0  0  0  0  0  0  0  0
    0  0  0  0  0  0  0  0  0  0
    0  0  0  0  0  0  0  0  0  0  0  0  0  0  0  0  0  0  0  0
    0  0  0  0  0  0  0  0  0  0  0  0  0  0  0  0  0  0  0  0
    0  0  0  0  0  0  0  0  0  0
    0  0  0  0  0  0  0  0  0  0  0  0  0  0  0  0  0  0  0  0
    0  0  0  0  0  0  0  0  0  0  0  0  0  0  0  0  0  0  0  0
    0  0  0  0  0  0  0  0  0  0
    0  0  0  0  0  0  0  0  0  0  0  0  0  0  0  0  0  0  0  0
    0  0  0  0  0  0  0  0  0  0  0  0  0  0  0  0  0  0  0  0
    0  0  0  0  0  0  0  0  0  0
    0  0  0  0  0  0  0  0  0  0  0  0  0  0  0  0  0  0  0  0
    0  0  0  0  0  0  0  0  0  0  0  0  0  0  0  0  0  0  0  0
    0  0  0  0  0  0  0  0  0  0
    0  0  0  0  0  0  0  0  0  0  0  0  0  0  0  0  0  0  0  0
    0  0  0  0  0  0  0  0  0  0  0  0  0  0  0  0  0  0  0  0
    0  0  0  0  0  0  0  0  0  0
    0  0  0  0  0  0  0  0  0  0  0  0  0  0  0  0  0  0  0  0
    0  0  0  0  0  0  0  0  0  0  0  0  0  0  0  0  0  0  0  0
    0  0  0  0  0  0  0  0  0  0
    0  0  0  0  0  0  0  0  0  0  0  0  0  0  0  0  0  0  0  0
    0  0  0  0  0  0  0  0  0  0  0  0  0  0  0  0  0  0  0  0
    0  0  0  0  0  0  0  0  0  0
    0  0  0  0  0  0  0  0  0  0  0  0  0  0  0  0  0  0  0  0
    0  0  0  0  0  0  0  0  0  0  0  0  0  0  0  0  0  0  0  0
    0  0  0  0  0  0  0  0  0  0
    0  0  0  0  0  0  0  0  0  0  0  0  0  0  0  0  0  0  0  0
    0  0  0  0  0  0  0  0  0  0  0  0  0  0  0  0  0  0  0  0
    0  0  0  0  0  0  0  0  0  0
    0  0  0  0  0  0  0  0  0  0  0  0  0  0  0  0  0  0  0  0
    0  0  0  0  0  0  0  0  0  0  0  0  0  0  0  0  0  0  0  0
    0  0  0  0  0  0  0  0  0  0
    0  0  0  0  0  0  0  0  0  0  0  0  0  0  0  0  0  0  0  0
    0  0  0  0  0  0  0  0  0  0  0  0  0  0  0  0  0  0  0  0
    0  0  0  0  0  0  0  0  0  0
    0  0  0  0  0  0  0  0  0  0  0  0  0  0  0  0  0  0  0  0
    0  0  0  0  0  0  0  0  0  0  0  0  0  0  0  0  0  0  0  0
    0  0  0  0  0  0  0  0  0  0
    0  0  0  0  0  0  0  0  0  0  0  0  0  0  0  0  0  0  0  0
    0  0  0  0  0  0  0  0  0  0  0  0  0  0  0  0  0  0  0  0
    0  0  0  0  0  0  0  0  0  0
    0  0  0  0  0  0  0  0  0  0  0  0  0  0  0  0  0  0  0  0
    0  0  0  0  0  0  0  0  0  0  0  0  0  0  0  0  0  0  0  0
    0  0  0  0  0  0  0  0  0  0
    0  0  0  0  0  0  0  0  0  0  0  0  0  0  0  0  0  0  0  0
    0  0  0  0  0  0  0  0  0  0  0  0  0  0  0  0  0  0  0  0
    0  0  0  0  0  0  0  0  0  0
    0  0  0  0  0  0  0  0  0  0  0  0  0  0  0  0  0  0  0  0
    0  0  0  0  0  0  0  0  0  0  0  0  0  0  0  0  0  0  0  0
    0  0  0  0  0  0  0  0  0  0
    0  0  0  0  0  0  0  0  0  0  0  0  0  0  0  0  0  0  0  0
    0  0  0  0  0  0  0  0  0  0  0  0  0  0  0  0  0  0  0  0
    0  0  0  0  0  0  0  0  0  0
    0  0  0  0  0  0  0  0  0  0  0  0  0  0  0  0  0  0  0  0
    0  0  0  0  0  0  0  0  0  0  0  0  0  0  0  0  0  0  0  0
    0  0  0  0  0  0  0  0  0  0
    0  0  0  0  0  0  0  0  0  0  0  0  0  0  0  0  0  0  0  0
    0  0  0  0  0  0  0  0  0  0  0  0  0  0  0  0  0  0  0  0
    0  0  0  0  0  0  0  0  0  0
    0  0  0  0  0  0  0  0  0  0  0  0  0  0  0  0  0  0  0  0
    0  0  0  0  0  0  0  0  0  0  0  0  0  0  0  0  0  0  0  0
    0  0  0  0  0  0  0  0  0  0
    0  0  0  0  0  0  0  0  0  0  0  0  0  0  0  0  0  0  0  0
    0  0  0  0  0  0  0  0  0  0  0  0  0  0  0  0  0  0  0  0
    0  0  0  0  0  0  0  0  0  0
    0  0  0  0  0  0  0  0  0  0  0  0  0  0  0  0  0  0  0  0
    0  0  0  0  0  0  0  0  0  0  0  0  0  0  0  0  0  0  0  0
    0  0  0  0  0  0  0  0  0  0
    0  0  0  0  0  0  0  0  0  0  0  0  0  0  0  0  0  0  0  0
    0  0  0  0  0  0  0  0  0  0  0  0  0  0  0  0  0  0  0  0
    0  0  0  0  0  0  0  0  0  0
    0  0  0  0  0  0  0  0  0  0  0  0  0  0  0  0  0  0  0  0
    0  0  0  0  0  0  0  0  0  0  0  0  0  0  0  0  0  0  0  0
    0  0  0  0  0  0  0  0  0  0
    0  0  0  0  0  0  0  0  0  0  0  0  0  0  0  0  0  0  0  0
    0  0  0  0  0  0  0  0  0  0  0  0  0  0  0  0  0  0  0  0
    0  0  0  0  0  0  0  0  0  0
    0  0  0  0  0  0  0  0  0  0  0  0  0  0  0  0  0  0  0  0
    0  0  0  0  0  0  0  0  0  0  0  0  0  0  0  0  0  0  0  0
    0  0  0  0  0  0  0  0  0  0
    0  0  0  0  0  0  0  0  0  0  0  0  0  0  0  0  0  0  0  0
    0  0  0  0  0  0  0  0  0  0  0  0  0  0  0  0  0  0  0  0
    0  0  0  0  0  0  0  0  0  0
    0  0  0  0  0  0  0  0  0  0  0  0  0  0  0  0  0  0  0  0
    0  0  0  0  0  0  0  0  0  0  0  0  0  0  0  0  0  0  0  0
    0  0  0  0  0  0  0  0  0  0
    0  0  0  0  0  0  0  0  0  0  0  0  0  0  0  0  0  0  0  0
    0  0  0  0  0  0  0  0  0  0  0  0  0  0  0  0  0  0  0  0
    0  0  0  0  0  0  0  0  0  0
    0  0  0  0  0  0  0  0  0  0  0  0  0  0  0  0  0  0  0  0
    0  0  0  0  0  0  0  0  0  0  0  0  0  0  0  0  0  0  0  0
    0  0  0  0  0  0  0  0  0  0
    0  0  0  0  0  0  0  0  0  0  0  0  0  0  0  0  0  0  0  0
    0  0  0  0  0  0  0  0  0  0  0  0  0  0  0  0  0  0  0  0
    0  0  0  0  0  0  0  0  0  0
    0  0  0  0  0  0  0  0  0  0  0  0  0  0  0  0  0  0  0  0
    0  0  0  0  0  0  0  0  0  0  0  0  0  0  0  0  0  0  0  0
    0  0  0  0  0  0  0  0  0  0
    0  0  0  0  0  0  0  0  0  0  0  0  0  0  0  0  0  0  0  0
    0  0  0  0  0  0  0  0  0  0  0  0  0  0  0  0  0  0  0  0
    0  0  0  0  0  0  0  0  0  0
    0  0  0  0  0  0  0  0  0  0  0  0  0  0  0  0  0  0  0  0
    0  0  0  0  0  0  0  0  0  0  0  0  0  0  0  0  0  0  0  0
    0  0  0  0  0  0  0  0  0  0
    0  0  0  0  0  0  0  0  0  0  0  0  0  0  0  0  0  0  0  0
    0  0  0  0  0  0  0  0  0  0  0  0  0  0  0  0  0  0  0  0
    0  0  0  0  0  0  0  0  0  0
    0  0  0  0  0  0  0  0  0  0  0  0  0  0  0  0  0  0  0  0
    0  0  0  0  0  0  0  0  0  0  0  0  0  0  0  0  0  0  0  0
    0  0  0  0  0  0  0  0  0  0
    0  0  0  0  0  0  0  0  0  0  0  0  0  0  0  0  0  0  0  0
    0  0  0  0  0  0  0  0  0  0  0  0  0  0  0  0  0  0  0  0
    0  0  0  0  0  0  0  0  0  0
    0  0  0  0  0  0  0  0  0  0  0  0  0  0  0  0  0  0  0  0
    0  0  0  0  0  0  0  0  0  0  0  0  0  0  0  0  0  0  0  0
    0  0  0  0  0  0  0  0  0  0
    0  0  0  0  0  0  0  0  0  0  0  0  0  0  0  0  0  0  0  0
    0  0  0  0  0  0  0  0  0  0  0  0  0  0  0  0  0  0  0  0
    0  0  0  0  0  0  0  0  0  0
    0  0  0  0  0  0  0  0  0  0  0  0  0  0  0  0  0  0  0  0
    0  0  0  0  0  0  0  0  0  0  0  0  0  0  0  0  0  0  0  0
    0  0  0  0  0  0  0  0  0  0
    0  0  0  0  0  0  0  0  0  0  0  0  0  0  0  0  0  0  0  0
    0  0  0  0  0  0  0  0  0  0  0  0  0  0  0  0  0  0  0  0
    0  0  0  0  0  0  0  0  0  0
    0  0  0  0  0  0  0  0  0  0  0  0  0  0  0  0  0  0  0  0
    0  0  0  0  0  0  0  0  0  0  0  0  0  0  0  0  0  0  0  0
    0  0  0  0  0  0  0  0  0  0
    0  0  0  0  0  0  0  0  0  0  0  0  0  0  0  0  0  0  0  0
    0  0  0  0  0  0  0  0  0  0  0  0  0  0  0  0  0  0  0  0
    0  0  0  0  0  0  0  0  0  0
    0  0  0  0  0  0  0  0  0  0  0  0  0  0  0  0  0  0  0  0
    0  0  0  0  0  0  0  0  0  0  0  0  0  0  0  0  0  0  0  0
    0  0  0  0  0  0  0  0  0  0
  k
    INTERNAL  FACTOR  1.0
           8.53255141       9.51802552      11.26058170       6.50427362       9.32417107       8.48950527       6.10057064       6.34657226       3.52035896       4.35215393       3.21372807       4.36779504       1.51744091       1.27615387       1.72931326       2.12805414       1.50885378       1.35795438       1.18727947       0.61844095
         0.56221469       0.59105606       0.48639084       0.35835505       0.33580788       0.25263577       0.13407672       0.15984459       0.14349589       0.18108631       0.18885830       0.21246749       0.17596542       0.22897490       0.31593755       0.25775350       0.63238575       0.64452053       0.82013726       0.61793448
         0.85598454       1.31838294       0.90717776       0.94878778       1.12762973       0.52452085       0.31342797       0.39076528       0.37607965       0.34798307
        10.40403818       8.88559992       8.55884458       5.93042904       6.17207634      10.67285919       7.23960445       4.75559244       3.03930385       2.56870564       3.26765361       2.00826795       1.61832790       1.07577184       1.20526880       2.08407363       1.60682254       1.47163517       0.69825986       0.52596005
         0.65058640       0.45053236       0.26123298       0.23099094       0.22670936       0.19848859       0.17307868       0.26393645       0.15280861       0.12789899       0.15843482       0.15149160       0.14063785       0.39192411       0.69637244       0.39193143       0.50911956       0.89627390       0.57776852       0.82756235
         0.73329814       1.26254944       0.94500870       0.77024780       0.66652659       0.72973725       0.36636049       0.32917903       0.52377026       0.36934007
         9.25706557       6.35598242       4.32913676       6.03643659       7.88072105      12.47108558       5.63262999       4.35386711       3.08389144       2.04811353       2.33260897       1.84054155       1.63348312       1.57253101       1.05221510       0.66029511       1.33015574       1.14404864       0.67440193       0.58814591
         0.55452059       0.43377655       0.33059199       0.34001241       0.29910597       0.29922174       0.30425556       0.22158324       0.26092494       0.21367721       0.18461423       0.27596323       0.21525979       0.45072582       0.85434300       0.60167951       0.47926566       0.66096940       0.79219787       0.82537204
         0.64206752       0.99552646       1.59201286       1.14140635       0.48813010       0.55035736       0.32262775       0.47903237       0.28894493       0.38953751
        10.00725657       6.24155659       5.70758895       7.36892958       7.41487494       8.54904234       6.41958047       5.55162636       2.32639646       2.21398454       2.06255558       0.93417362       1.14852012       1.29094323       1.17018119       1.06355421       1.20823980       0.98695002       0.52908965       0.45246640
         0.71575211       0.86884350       0.92822641       0.64310686       0.27545152       0.31242638       0.43507355       0.32019464       0.31426694       0.41577616       0.33180171       0.43419009       0.42623282       0.39274466       0.55212980       0.62519793       0.72838468       0.73361570       0.63611248       0.44606961
         0.45174057       0.65972983       0.58916496       0.72880210       0.53316958       0.30638599       0.26442995       0.37188626       0.39319587       0.35731224
         9.16428479       6.39567936       3.43152404       4.16533557       4.15444758       5.32920491       7.04423442       4.12836099       2.64589235       1.69709603       1.11576851       0.80552115       0.75144656       0.84458094       1.18492133       1.07807410       1.30666329       1.15423409       0.66110925       0.75748476
         0.54765457       0.83642521       1.20586357       0.59600470       0.50901623       0.58698962       0.47996868       0.42455093       0.42769080       0.83315270       0.46366604       0.75675240       0.45671580       0.49499086       0.64021109       0.42422618       0.42683762       0.41785542       0.40156938       0.28265280
         0.30334697       0.31983468       0.36751565       0.47379226       0.28307995       0.37234643       0.24037693       0.26560002       0.25024701       0.16239042
         5.93386439       3.98451762       2.87472585       2.56739396       3.83798710       3.15990422       4.13226359       2.87227138       1.93632680       1.15728679       1.14524495       0.56710863       0.42221873       0.59458488       1.30353569       0.93880304       1.80771995       2.26832528       1.96714828       0.82702636
         0.69509468       0.99860500       1.24022033       0.82783037       1.54897808       0.80590470       0.62987914       0.75827303       0.70136774       0.67071379       0.63060181       0.46995053       0.39175163       0.35145942       0.46166654       0.40245868       0.39125299       0.40620772       0.14097541       0.19820012
         0.18797587       0.19473339       0.28565083       0.17570817       0.18943358       0.19584828       0.20056420       0.15394952       0.23727531       0.22669451
         2.84690654       2.35084178       2.28355571       2.49614495       2.22333774       2.80572674       3.00732866       1.85126914       2.55491498       1.38169181       0.67486908       0.78279628       0.45890892       0.50729065       0.65642876       1.12937069       1.90232255       1.60444290       1.32963497       1.12485719
         1.33469149       1.54443063       1.51430784       1.10402154       1.11642425       0.80888104       0.56811023       0.93405250       0.61095602       0.62154611       0.37568498       0.42387426       0.24381914       0.36578747       0.40909258       0.44168471       0.37801747       0.30894583       0.13521237       0.19776179
         0.27151141       0.34084331       0.27014683       0.22965351       0.20721680       0.13665139       0.10966617       0.07462789       0.08067284       0.07812589
         1.30917012       1.50344922       2.19206051       1.88986074       2.79026364       3.38908527       3.64005648       1.55188060       2.31426469       1.88624678       0.84407934       0.77799544       0.92660514       0.74193678       0.56608750       0.78155480       1.71500806       1.57006579       1.82670369       1.72218515
         1.20657502       0.94220188       1.25896248       1.57591491       1.46538809       0.47806061       0.65930162       1.24062219       0.57919348       0.89323363       0.68561405       0.55244651       0.50951517       0.55475924       0.59942581       0.50923828       0.44306597       0.31049360       0.20315650       0.28814597
         0.41140611       0.47029478       0.28021538       0.21550483       0.15266730       0.15579567       0.08152965       0.06296872       0.05468810       0.05889488
         2.51605965       2.19637543       2.33247954       2.24369199       2.09534760       4.49383088       2.01770632       2.85448496       2.43276106       1.56162888       1.33101739       0.91513262       0.96589775       0.81394704       0.54053673       0.64244086       1.54114198       2.04136892       2.13562130       1.58663448
         1.70159134       0.96040888       1.37812021       1.15215538       1.35183965       1.02194844       0.69984017       0.95144334       1.23282987       0.74600280       0.65027561       0.57985824       0.27893319       0.39379753       0.35127361       0.33123117       0.28079815       0.25458972       0.26731897       0.44116149
         0.32154777       0.40680930       0.19243047       0.18031003       0.07019226       0.08701126       0.10598269       0.06991372       0.08214106       0.10234901
         2.53199670       2.92890281       3.83875610       2.81631387       2.64678437       2.36953577       2.38010258       2.74112970       1.86111034       1.41412500       1.03019442       1.18571625       1.05962294       1.30699802       0.75727143       0.80426009       1.70997159       1.73314233       3.27606999       1.73807437
         2.07422108       1.65188232       2.07026109       1.53429927       2.09427067       1.15917644       0.72193708       1.21028912       1.28545653       0.99628270       0.80691494       0.74135482       0.80252117       0.53527848       0.41809313       0.41081287       0.27836325       0.21052012       0.27321066       0.27695593
         0.27049043       0.29153155       0.16955625       0.10461247       0.09130012       0.04724567       0.06511831       0.06181774       0.06974442       0.07043846
         2.61161489       1.76680391       2.54466727       1.94465582       1.34372771       1.27168710       1.73859172       2.26552195       1.81349009       2.51275022       1.31029804       0.66416681       1.08917351       0.88971541       1.11468260       1.01273336       2.04513897       2.66162642       3.24722242       3.06011352
         2.27900263       2.01755544       2.36229106       2.26991718       1.68156188       1.63854931       1.20614888       1.16575275       1.34893547       1.54289075       1.20610514       0.96824648       1.10968883       1.01132241       0.69810699       0.80666300       0.37490817       0.26797295       0.21560660       0.31220487
         0.35816092       0.45446421       0.24107414       0.19899130       0.13308179       0.09703292       0.09601045       0.04517323       0.08532607       0.07259918
         3.49655172       3.84662449       3.72473291       3.50444068       2.18081642       1.71218423       1.26230086       1.70604095       1.17150082       0.80211306       0.98697876       0.72923445       1.14562121       1.64320621       1.23285095       1.73273850       2.10546618       2.67704444       3.86716981       3.21114519
         2.63172010       2.71324465       2.57857152       2.12441290       2.30761655       1.49396886       1.57490590       1.91315323       1.99068611       1.21880807       1.35866465       0.92557125       1.66340674       1.25226863       1.06515679       1.11038266       0.62945586       0.53944811       0.29045950       0.33686604
         0.35555695       0.37972235       0.38156676       0.26836309       0.15933670       0.08002062       0.08953922       0.11049198       0.06117851       0.06484484
         2.84451036       3.77234157       2.70456852       2.73954308       1.93074253       1.13531630       1.58687697       0.74751767       1.46480060       1.08995021       0.89179285       0.89709161       0.87887251       2.12783794       2.02493038       2.19938312       2.29550288       2.17784342       2.34498985       3.09499895
         1.67774070       2.20915374       2.25007991       1.25253380       1.41299017       2.83341594       2.88013752       1.63120936       0.99390951       1.31718296       1.38365612       1.68632874       1.67291351       1.27689554       1.06046429       0.91101495       0.72652365       0.45611897       0.41242510       0.39350546
         0.59463060       0.43049807       0.62743467       0.22276530       0.13947542       0.14362311       0.10654033       0.17798152       0.08749588       0.12883463
         2.80489553       2.26385445       1.93645114       1.98757342       1.99951007       1.01992580       0.98668999       1.41301103       1.15875450       1.41613651       1.29817019       1.60038587       1.23453569       1.67209758       2.75500939       2.53795123       2.07804112       3.00877737       2.21484355       3.04665860
         2.02356019       2.32044575       1.48470237       1.68393169       1.70259998       2.73042766       4.41207541       1.65222754       1.80622687       2.05655935       1.40311275       2.32921481       1.63991567       1.24751204       1.22608523       0.86567878       1.03448273       0.85206929       0.62280985       0.41612008
         0.56748890       0.50993518       0.45963256       0.37743810       0.28041501       0.22835537       0.26727757       0.24671928       0.25990642       0.33282557
         2.69426045       2.38527655       2.62835676       1.84206464       1.56023503       1.32160988       0.92429631       1.19838485       1.71163729       1.95070078       2.44128379       2.40889646       3.61068982       3.36036832       2.32948152       2.13067213       2.51713256       1.49797323       2.08870642       1.35775593
         2.19275140       1.99523460       1.46241914       1.56968205       2.81601655       2.55146517       2.50018575       2.79593114       2.86619712       4.41140577       4.07493007       2.17296233       1.51744507       1.63511282       1.36109389       1.05097491       1.01331012       1.46602069       1.07931857       0.74936997
         0.82612914       0.48058398       0.66173663       0.40763489       0.40448783       0.40167293       0.30734687       0.25428590       0.36196889       0.18291502
         4.84370565       2.56152929       2.10285705       2.12889414       1.00967864       0.97073562       1.57938679       1.87727246       2.73563917       2.12633084       3.19649853       2.64382465       2.49901054       2.85272303       4.49585363       3.78600820       2.94939115       1.82900515       2.51870403       2.00503615
         1.63638900       1.99098775       1.08609259       2.16016282       3.15880078       2.33744293       2.41796021       2.61849352       2.73361515       5.55279841       4.38022973       3.22333553       2.44468417       1.95207514       2.22084574       2.07335235       1.35491815       1.65085278       2.47449789       1.18869478
         0.97350258       0.72284554       0.90196576       0.79530000       0.51566296       0.36860697       0.28528501       0.26129289       0.33408921       0.40024955
         2.27549084       2.11849358       1.96727033       1.19251060       0.75180178       0.84369982       1.73336274       2.10179008       3.70426447       3.33359828       2.69591738       2.15538168       5.03301454       2.95516099       3.06961379       3.08087602       3.68631416       2.38872466       1.36313287       2.01058202
         2.11934275       2.00119081       1.47795390       1.99423383       2.10760181       2.19595041       1.27186110       2.06054257       5.01303028       6.14119314       5.88313560       4.48741060       3.74148152       2.45102446       2.54051956       2.26721953       1.91100776       1.67144435       1.14784018       2.42675321
         2.14510365       1.66703666       0.78189910       0.73388371       0.65964390       0.47815795       0.50347136       0.44091481       0.24962930       0.30150034
         2.12999616       2.22689175       2.21564142       1.70716745       1.07485347       1.29963929       1.61416696       1.73723955       2.60535108       3.09130217       3.64140998       3.01189581       2.84473309       2.78100547       3.66452679       4.10384735       4.00283468       2.90288576       1.28734507       1.34470721
         1.88106806       2.42812064       2.26381750       2.99424955       2.72219340       1.35770118       2.24158946       2.96661108       7.36128865       6.94042826       6.48391778       4.05852795       5.40908407       4.31551277       3.30222260       2.30797896       2.55830109       2.47297807       3.02676331       1.92560603
         1.53563153       1.48240021       1.00562243       0.87494424       0.64721749       0.48910827       0.75650191       0.36793410       0.41698792       0.30822418
         2.61033617       1.44088940       1.97907180       1.55651950       1.84025434       1.70900737       1.21529923       2.03545270       2.08723319       2.54810399       3.53101972       2.26841488       2.12592806       2.33065884       3.21653339       3.72955497       2.93485421       3.07857659       2.11772682       2.02601344
         1.77070552       2.92290481       2.68200906       2.70209939       2.59662982       1.84760288       1.95963217       3.97889606       3.59787599       4.70252127       6.68204236       4.52658308       7.88301212       7.43195964       4.57450868       3.70588733       2.13940571       1.78897374       2.00448075       2.27975258
         1.15428338       1.18486905       1.19347383       1.45772111       1.30156591       0.88346052       0.69836322       0.56795524       0.42077742       0.33217778
         5.08268977       2.60598875       1.60011352       1.77297083       1.33480860       1.37762818       2.35022100       2.71248756       4.01320173       3.04740166       2.87262980       2.73083527       1.75600095       2.31302121       2.62932891       4.39870577       4.96206686       3.13252707       1.55259652       2.10122582
         1.31243459       1.61233969       2.25777479       3.32558315       2.53600973       3.30644715       3.86044983       3.24404860       3.82083065       8.61231717       6.41291360       6.22602318       4.81582851       6.42338128       5.20246000       3.24933442       1.96371015       2.40469242       1.90255369       2.16071169