BEGIN options
END options

BEGIN griddata
  icelltype
    INTERNAL  FACTOR  1
      0  0  0  0  0  0  0  0  0  0  0  0  0  0  0  0  0  0  0  0
    0  0  0  0  0  0  0  0  0  0  0  0  0  0  0  0  0  0  0  0
    0  0  0  0  0  0  0  0  0  0
    0  0  0  0  0  0  0  0  0  0  0  0  0  0  0  0  0  0  0  0
    0  0  0  0  0  0  0  0  0  0  0  0  0  0  0  0  0  0  0  0
    0  0  0  0  0  0  0  0  0  0
    0  0  0  0  0  0  0  0  0  0  0  0  0  0  0  0  0  0  0  0
    0  0  0  0  0  0  0  0  0  0  0  0  0  0  0  0  0  0  0  0
    0  0  0  0  0  0  0  0  0  0
    0  0  0  0  0  0  0  0  0  0  0  0  0  0  0  0  0  0  0  0
    0  0  0  0  0  0  0  0  0  0  0  0  0  0  0  0  0  0  0  0
    0  0  0  0  0  0  0  0  0  0
    0  0  0  0  0  0  0  0  0  0  0  0  0  0  0  0  0  0  0  0
    0  0  0  0  0  0  0  0  0  0  0  0  0  0  0  0  0  0  0  0
    0  0  0  0  0  0  0  0  0  0
    0  0  0  0  0  0  0  0  0  0  0  0  0  0  0  0  0  0  0  0
    0  0  0  0  0  0  0  0  0  0  0  0  0  0  0  0  0  0  0  0
    0  0  0  0  0  0  0  0  0  0
    0  0  0  0  0  0  0  0  0  0  0  0  0  0  0  0  0  0  0  0
    0  0  0  0  0  0  0  0  0  0  0  0  0  0  0  0  0  0  0  0
    0  0  0  0  0  0  0  0  0  0
    0  0  0  0  0  0  0  0  0  0  0  0  0  0  0  0  0  0  0  0
    0  0  0  0  0  0  0  0  0  0  0  0  0  0  0  0  0  0  0  0
    0  0  0  0  0  0  0  0  0  0
    0  0  0  0  0  0  0  0  0  0  0  0  0  0  0  0  0  0  0  0
    0  0  0  0  0  0  0  0  0  0  0  0  0  0  0  0  0  0  0  0
    0  0  0  0  0  0  0  0  0  0
    0  0  0  0  0  0  0  0  0  0  0  0  0  0  0  0  0  0  0  0
    0  0  0  0  0  0  0  0  0  0  0  0  0  0  0  0  0  0  0  0
    0  0  0  0  0  0  0  0  0  0
    0  0  0  0  0  0  0  0  0  0  0  0  0  0  0  0  0  0  0  0
    0  0  0  0  0  0  0  0  0  0  0  0  0  0  0  0  0  0  0  0
    0  0  0  0  0  0  0  0  0  0
    0  0  0  0  0  0  0  0  0  0  0  0  0  0  0  0  0  0  0  0
    0  0  0  0  0  0  0  0  0  0  0  0  0  0  0  0  0  0  0  0
    0  0  0  0  0  0  0  0  0  0
    0  0  0  0  0  0  0  0  0  0  0  0  0  0  0  0  0  0  0  0
    0  0  0  0  0  0  0  0  0  0  0  0  0  0  0  0  0  0  0  0
    0  0  0  0  0  0  0  0  0  0
    0  0  0  0  0  0  0  0  0  0  0  0  0  0  0  0  0  0  0  0
    0  0  0  0  0  0  0  0  0  0  0  0  0  0  0  0  0  0  0  0
    0  0  0  0  0  0  0  0  0  0
    0  0  0  0  0  0  0  0  0  0  0  0  0  0  0  0  0  0  0  0
    0  0  0  0  0  0  0  0  0  0  0  0  0  0  0  0  0  0  0  0
    0  0  0  0  0  0  0  0  0  0
    0  0  0  0  0  0  0  0  0  0  0  0  0  0  0  0  0  0  0  0
    0  0  0  0  0  0  0  0  0  0  0  0  0  0  0  0  0  0  0  0
    0  0  0  0  0  0  0  0  0  0
    0  0  0  0  0  0  0  0  0  0  0  0  0  0  0  0  0  0  0  0
    0  0  0  0  0  0  0  0  0  0  0  0  0  0  0  0  0  0  0  0
    0  0  0  0  0  0  0  0  0  0
    0  0  0  0  0  0  0  0  0  0  0  0  0  0  0  0  0  0  0  0
    0  0  0  0  0  0  0  0  0  0  0  0  0  0  0  0  0  0  0  0
    0  0  0  0  0  0  0  0  0  0
    0  0  0  0  0  0  0  0  0  0  0  0  0  0  0  0  0  0  0  0
    0  0  0  0  0  0  0  0  0  0  0  0  0  0  0  0  0  0  0  0
    0  0  0  0  0  0  0  0  0  0
    0  0  0  0  0  0  0  0  0  0  0  0  0  0  0  0  0  0  0  0
    0  0  0  0  0  0  0  0  0  0  0  0  0  0  0  0  0  0  0  0
    0  0  0  0  0  0  0  0  0  0
    0  0  0  0  0  0  0  0  0  0  0  0  0  0  0  0  0  0  0  0
    0  0  0  0  0  0  0  0  0  0  0  0  0  0  0  0  0  0  0  0
    0  0  0  0  0  0  0  0  0  0
    0  0  0  0  0  0  0  0  0  0  0  0  0  0  0  0  0  0  0  0
    0  0  0  0  0  0  0  0  0  0  0  0  0  0  0  0  0  0  0  0
    0  0  0  0  0  0  0  0  0  0
    0  0  0  0  0  0  0  0  0  0  0  0  0  0  0  0  0  0  0  0
    0  0  0  0  0  0  0  0  0  0  0  0  0  0  0  0  0  0  0  0
    0  0  0  0  0  0  0  0  0  0
    0  0  0  0  0  0  0  0  0  0  0  0  0  0  0  0  0  0  0  0
    0  0  0  0  0  0  0  0  0  0  0  0  0  0  0  0  0  0  0  0
    0  0  0  0  0  0  0  0  0  0
    0  0  0  0  0  0  0  0  0  0  0  0  0  0  0  0  0  0  0  0
    0  0  0  0  0  0  0  0  0  0  0  0  0  0  0  0  0  0  0  0
    0  0  0  0  0  0  0  0  0  0
    0  0  0  0  0  0  0  0  0  0  0  0  0  0  0  0  0  0  0  0
    0  0  0  0  0  0  0  0  0  0  0  0  0  0  0  0  0  0  0  0
    0  0  0  0  0  0  0  0  0  0
    0  0  0  0  0  0  0  0  0  0  0  0  0  0  0  0  0  0  0  0
    0  0  0  0  0  0  0  0  0  0  0  0  0  0  0  0  0  0  0  0
    0  0  0  0  0  0  0  0  0  0
    0  0  0  0  0  0  0  0  0  0  0  0  0  0  0  0  0  0  0  0
    0  0  0  0  0  0  0  0  0  0  0  0  0  0  0  0  0  0  0  0
    0  0  0  0  0  0  0  0  0  0
    0  0  0  0  0  0  0  0  0  0  0  0  0  0  0  0  0  0  0  0
    0  0  0  0  0  0  0  0  0  0  0  0  0  0  0  0  0  0  0  0
    0  0  0  0  0  0  0  0  0  0
    0  0  0  0  0  0  0  0  0  0  0  0  0  0  0  0  0  0  0  0
    0  0  0  0  0  0  0  0  0  0  0  0  0  0  0  0  0  0  0  0
    0  0  0  0  0  0  0  0  0  0
    0  0  0  0  0  0  0  0  0  0  0  0  0  0  0  0  0  0  0  0
    0  0  0  0  0  0  0  0  0  0  0  0  0  0  0  0  0  0  0  0
    0  0  0  0  0  0  0  0  0  0
    0  0  0  0  0  0  0  0  0  0  0  0  0  0  0  0  0  0  0  0
    0  0  0  0  0  0  0  0  0  0  0  0  0  0  0  0  0  0  0  0
    0  0  0  0  0  0  0  0  0  0
    0  0  0  0  0  0  0  0  0  0  0  0  0  0  0  0  0  0  0  0
    0  0  0  0  0  0  0  0  0  0  0  0  0  0  0  0  0  0  0  0
    0  0  0  0  0  0  0  0  0  0
    0  0  0  0  0  0  0  0  0  0  0  0  0  0  0  0  0  0  0  0
    0  0  0  0  0  0  0  0  0  0  0  0  0  0  0  0  0  0  0  0
    0  0  0  0  0  0  0  0  0  0
    0  0  0  0  0  0  0  0  0  0  0  0  0  0  0  0  0  0  0  0
    0  0  0  0  0  0  0  0  0  0  0  0  0  0  0  0  0  0  0  0
    0  0  0  0  0  0  0  0  0  0
    0  0  0  0  0  0  0  0  0  0  0  0  0  0  0  0  0  0  0  0
    0  0  0  0  0  0  0  0  0  0  0  0  0  0  0  0  0  0  0  0
    0  0  0  0  0  0  0  0  0  0
    0  0  0  0  0  0  0  0  0  0  0  0  0  0  0  0  0  0  0  0
    0  0  0  0  0  0  0  0  0  0  0  0  0  0  0  0  0  0  0  0
    0  0  0  0  0  0  0  0  0  0
    0  0  0  0  0  0  0  0  0  0  0  0  0  0  0  0  0  0  0  0
    0  0  0  0  0  0  0  0  0  0  0  0  0  0  0  0  0  0  0  0
    0  0  0  0  0  0  0  0  0  0
    0  0  0  0  0  0  0  0  0  0  0  0  0  0  0  0  0  0  0  0
    0  0  0  0  0  0  0  0  0  0  0  0  0  0  0  0  0  0  0  0
    0  0  0  0  0  0  0  0  0  0
    0  0  0  0  0  0  0  0  0  0  0  0  0  0  0  0  0  0  0  0
    0  0  0  0  0  0  0  0  0  0  0  0  0  0  0  0  0  0  0  0
    0  0  0  0  0  0  0  0  0  0
    0  0  0  0  0  0  0  0  0  0  0  0  0  0  0  0  0  0  0  0
    0  0  0  0  0  0  0  0  0  0  0  0  0  0  0  0  0  0  0  0
    0  0  0  0  0  0  0  0  0  0
    0  0  0  0  0  0  0  0  0  0  0  0  0  0  0  0  0  0  0  0
    0  0  0  0  0  0  0  0  0  0  0  0  0  0  0  0  0  0  0  0
    0  0  0  0  0  0  0  0  0  0
    0  0  0  0  0  0  0  0  0  0  0  0  0  0  0  0  0  0  0  0
    0  0  0  0  0  0  0  0  0  0  0  0  0  0  0  0  0  0  0  0
    0  0  0  0  0  0  0  0  0  0
    0  0  0  0  0  0  0  0  0  0  0  0  0  0  0  0  0  0  0  0
    0  0  0  0  0  0  0  0  0  0  0  0  0  0  0  0  0  0  0  0
    0  0  0  0  0  0  0  0  0  0
    0  0  0  0  0  0  0  0  0  0  0  0  0  0  0  0  0  0  0  0
    0  0  0  0  0  0  0  0  0  0  0  0  0  0  0  0  0  0  0  0
    0  0  0  0  0  0  0  0  0  0
    0  0  0  0  0  0  0  0  0  0  0  0  0  0  0  0  0  0  0  0
    0  0  0  0  0  0  0  0  0  0  0  0  0  0  0  0  0  0  0  0
    0  0  0  0  0  0  0  0  0  0
    0  0  0  0  0  0  0  0  0  0  0  0  0  0  0  0  0  0  0  0
    0  0  0  0  0  0  0  0  0  0  0  0  0  0  0  0  0  0  0  0
    0  0  0  0  0  0  0  0  0  0
    0  0  0  0  0  0  0  0  0  0  0  0  0  0  0  0  0  0  0  0
    0  0  0  0  0  0  0  0  0  0  0  0  0  0  0  0  0  0  0  0
    0  0  0  0  0  0  0  0  0  0
    0  0  0  0  0  0  0  0  0  0  0  0  0  0  0  0  0  0  0  0
    0  0  0  0  0  0  0  0  0  0  0  0  0  0  0  0  0  0  0  0
    0  0  0  0  0  0  0  0  0  0
    0  0  0  0  0  0  0  0  0  0  0  0  0  0  0  0  0  0  0  0
    0  0  0  0  0  0  0  0  0  0  0  0  0  0  0  0  0  0  0  0
    0  0  0  0  0  0  0  0  0  0
    0  0  0  0  0  0  0  0  0  0  0  0  0  0  0  0  0  0  0  0
    0  0  0  0  0  0  0  0  0  0  0  0  0  0  0  0  0  0  0  0
    0  0  0  0  0  0  0  0  0  0
    0  0  0  0  0  0  0  0  0  0  0  0  0  0  0  0  0  0  0  0
    0  0  0  0  0  0  0  0  0  0  0  0  0  0  0  0  0  0  0  0
    0  0  0  0  0  0  0  0  0  0
    0  0  0  0  0  0  0  0  0  0  0  0  0  0  0  0  0  0  0  0
    0  0  0  0  0  0  0  0  0  0  0  0  0  0  0  0  0  0  0  0
    0  0  0  0  0  0  0  0  0  0
    0  0  0  0  0  0  0  0  0  0  0  0  0  0  0  0  0  0  0  0
    0  0  0  0  0  0  0  0  0  0  0  0  0  0  0  0  0  0  0  0
    0  0  0  0  0  0  0  0  0  0
    0  0  0  0  0  0  0  0  0  0  0  0  0  0  0  0  0  0  0  0
    0  0  0  0  0  0  0  0  0  0  0  0  0  0  0  0  0  0  0  0
    0  0  0  0  0  0  0  0  0  0
    0  0  0  0  0  0  0  0  0  0  0  0  0  0  0  0  0  0  0  0
    0  0  0  0  0  0  0  0  0  0  0  0  0  0  0  0  0  0  0  0
    0  0  0  0  0  0  0  0  0  0
    0  0  0  0  0  0  0  0  0  0  0  0  0  0  0  0  0  0  0  0
    0  0  0  0  0  0  0  0  0  0  0  0  0  0  0  0  0  0  0  0
    0  0  0  0  0  0  0  0  0  0
    0  0  0  0  0  0  0  0  0  0  0  0  0  0  0  0  0  0  0  0
    0  0  0  0  0  0  0  0  0  0  0  0  0  0  0  0  0  0  0  0
    0  0  0  0  0  0  0  0  0  0
    0  0  0  0  0  0  0  0  0  0  0  0  0  0  0  0  0  0  0  0
    0  0  0  0  0  0  0  0  0  0  0  0  0  0  0  0  0  0  0  0
    0  0  0  0  0  0  0  0  0  0
    0  0  0  0  0  0  0  0  0  0  0  0  0  0  0  0  0  0  0  0
    0  0  0  0  0  0  0  0  0  0  0  0  0  0  0  0  0  0  0  0
    0  0  0  0  0  0  0  0  0  0
    0  0  0  0  0  0  0  0  0  0  0  0  0  0  0  0  0  0  0  0
    0  0  0  0  0  0  0  0  0  0  0  0  0  0  0  0  0  0  0  0
    0  0  0  0  0  0  0  0  0  0
    0  0  0  0  0  0  0  0  0  0  0  0  0  0  0  0  0  0  0  0
    0  0  0  0  0  0  0  0  0  0  0  0  0  0  0  0  0  0  0  0
    0  0  0  0  0  0  0  0  0  0
    0  0  0  0  0  0  0  0  0  0  0  0  0  0  0  0  0  0  0  0
    0  0  0  0  0  0  0  0  0  0  0  0  0  0  0  0  0  0  0  0
    0  0  0  0  0  0  0  0  0  0
    0  0  0  0  0  0  0  0  0  0  0  0  0  0  0  0  0  0  0  0
    0  0  0  0  0  0  0  0  0  0  0  0  0  0  0  0  0  0  0  0
    0  0  0  0  0  0  0  0  0  0
    0  0  0  0  0  0  0  0  0  0  0  0  0  0  0  0  0  0  0  0
    0  0  0  0  0  0  0  0  0  0  0  0  0  0  0  0  0  0  0  0
    0  0  0  0  0  0  0  0  0  0
    0  0  0  0  0  0  0  0  0  0  0  0  0  0  0  0  0  0  0  0
    0  0  0  0  0  0  0  0  0  0  0  0  0  0  0  0  0  0  0  0
    0  0  0  0  0  0  0  0  0  0
    0  0  0  0  0  0  0  0  0  0  0  0  0  0  0  0  0  0  0  0
    0  0  0  0  0  0  0  0  0  0  0  0  0  0  0  0  0  0  0  0
    0  0  0  0  0  0  0  0  0  0
    0  0  0  0  0  0  0  0  0  0  0  0  0  0  0  0  0  0  0  0
    0  0  0  0  0  0  0  0  0  0  0  0  0  0  0  0  0  0  0  0
    0  0  0  0  0  0  0  0  0  0
    0  0  0  0  0  0  0  0  0  0  0  0  0  0  0  0  0  0  0  0
    0  0  0  0  0  0  0  0  0  0  0  0  0  0  0  0  0  0  0  0
    0  0  0  0  0  0  0  0  0  0
    0  0  0  0  0  0  0  0  0  0  0  0  0  0  0  0  0  0  0  0
    0  0  0  0  0  0  0  0  0  0  0  0  0  0  0  0  0  0  0  0
    0  0  0  0  0  0  0  0  0  0
    0  0  0  0  0  0  0  0  0  0  0  0  0  0  0  0  0  0  0  0
    0  0  0  0  0  0  0  0  0  0  0  0  0  0  0  0  0  0  0  0
    0  0  0  0  0  0  0  0  0  0
    0  0  0  0  0  0  0  0  0  0  0  0  0  0  0  0  0  0  0  0
    0  0  0  0  0  0  0  0  0  0  0  0  0  0  0  0  0  0  0  0
    0  0  0  0  0  0  0  0  0  0
    0  0  0  0  0  0  0  0  0  0  0  0  0  0  0  0  0  0  0  0
    0  0  0  0  0  0  0  0  0  0  0  0  0  0  0  0  0  0  0  0
    0  0  0  0  0  0  0  0  0  0
    0  0  0  0  0  0  0  0  0  0  0  0  0  0  0  0  0  0  0  0
    0  0  0  0  0  0  0  0  0  0  0  0  0  0  0  0  0  0  0  0
    0  0  0  0  0  0  0  0  0  0
    0  0  0  0  0  0  0  0  0  0  0  0  0  0  0  0  0  0  0  0
    0  0  0  0  0  0  0  0  0  0  0  0  0  0  0  0  0  0  0  0
    0  0  0  0  0  0  0  0  0  0
    0  0  0  0  0  0  0  0  0  0  0  0  0  0  0  0  0  0  0  0
    0  0  0  0  0  0  0  0  0  0  0  0  0  0  0  0  0  0  0  0
    0  0  0  0  0  0  0  0  0  0
    0  0  0  0  0  0  0  0  0  0  0  0  0  0  0  0  0  0  0  0
    0  0  0  0  0  0  0  0  0  0  0  0  0  0  0  0  0  0  0  0
    0  0  0  0  0  0  0  0  0  0
    0  0  0  0  0  0  0  0  0  0  0  0  0  0  0  0  0  0  0  0
    0  0  0  0  0  0  0  0  0  0  0  0  0  0  0  0  0  0  0  0
    0  0  0  0  0  0  0  0  0  0
    0  0  0  0  0  0  0  0  0  0  0  0  0  0  0  0  0  0  0  0
    0  0  0  0  0  0  0  0  0  0  0  0  0  0  0  0  0  0  0  0
    0  0  0  0  0  0  0  0  0  0
    0  0  0  0  0  0  0  0  0  0  0  0  0  0  0  0  0  0  0  0
    0  0  0  0  0  0  0  0  0  0  0  0  0  0  0  0  0  0  0  0
    0  0  0  0  0  0  0  0  0  0
  k
    INTERNAL  FACTOR  1.0
           0.56198732       0.81189814       1.00601221       0.63166857       0.59488452       0.53009903       0.54440067       0.78255444       0.61612614       0.60352362       0.98162841       1.44651395       1.58171337       0.85403138       1.04794792       1.11460334       2.12019759       1.15709147       1.03280152       0.70947777
         0.70145426       0.71659587       0.69201291       1.12136157       1.17377302       1.70058780       1.39694731       1.69514358       1.89642652       1.39007533       1.06196015       1.04210659       0.60557111       0.96004367       0.46559002       0.54632120       0.29036148       0.22142783       0.17652143       0.23160438
         0.17505001       0.10275695       0.09045001       0.10431063       0.15954455       0.22894625       0.33810536       0.19654147       0.20212340       0.24157742
         1.01982596       1.21508709       1.34493326       1.34826678       0.92034823       0.62902096       0.72516070       0.53684307       0.63506412       0.53362644       0.76146333       0.82680159       1.17422725       0.77317986       0.64019713       1.11169621       1.49197655       1.69698435       1.21399126       0.82588202
         0.45305926       0.44256635       0.65209240       0.80536749       1.09150935       1.47053775       1.39175406       1.38245139       1.00392768       0.75028424       0.70762035       0.84473882       0.86369963       0.76064364       0.53701768       0.37884310       0.29342974       0.22494963       0.27185689       0.29216935
         0.23545970       0.25268797       0.15070423       0.13906723       0.12491756       0.20903351       0.21115873       0.33470033       0.25935467       0.26718213
         1.53178807       1.10999659       1.21168892       1.22157473       1.40484038       0.86661154       0.87076155       0.52212303       0.32878516       0.35490055       0.67281185       0.75501214       0.72678411       0.68059440       0.73689697       0.58943319       0.99464599       0.82272139       0.90353624       0.58609096
         0.52038633       0.37486204       0.44447096       0.82068377       1.22041271       1.23510246       1.00566906       1.08725233       0.83266852       0.69414115       0.49931657       0.52714687       0.64749681       0.89097242       0.60243830       0.47019706       0.22922314       0.27636933       0.38669032       0.15673828
         0.23939538       0.16412576       0.15995263       0.14496412       0.13928594       0.12267715       0.29972073       0.16660814       0.29745007       0.28306897
         1.47417824       0.90263594       0.88421283       1.18939738       1.13546728       1.18993934       0.95798485       0.53297794       0.51600085       0.35279084       0.88289622       1.09608427       1.18341792       0.70205142       0.65763071       0.64320215       0.61856049       1.00127300       0.97589707       0.53250663
         0.63113548       0.68645869       0.74185437       0.85771181       0.88911665       1.52138469       1.08342814       1.52063264       1.17316567       0.71344767       0.57156682       0.78420504       0.94709694       0.90185015       0.76750276       0.32889236       0.39097673       0.25843203       0.20800869       0.25661814
         0.20477576       0.15483655       0.21305176       0.22493110       0.28560369       0.30739971       0.24292635       0.48408371       0.45854291       0.32902386
         0.86004914       0.77273817       0.79887401       0.90873115       1.47321314       0.92486659       1.16007500       0.88150572       0.84847556       0.64998483       0.99158519       0.99822476       1.33098418       0.67135268       0.50664519       1.07594971       0.71326906       0.94431062       1.38268943       1.12954505
         1.06468522       0.61112661       0.44182777       0.76306031       0.58295154       0.88690765       1.39769325       1.38871334       1.03021273       0.96464271       0.66116528       0.85021547       0.74483465       0.46067886       0.57393378       0.89427511       0.47946879       0.27878170       0.19514121       0.16682324
         0.19924761       0.13977800       0.19395954       0.24816425       0.22236808       0.19781519       0.23286643       0.43898646       0.53867130       0.39654135
         1.27995241       0.70069949       0.61260537       0.92479346       0.92795461       1.11229422       0.97609685       0.70541739       0.95097959       0.95377007       1.14524506       0.73427580       0.90010896       0.91170185       0.60063472       0.97522195       0.77644395       0.73976429       1.33340035       1.47383283
         1.03438813       0.60874840       0.68490721       0.75430179       0.56773072       0.80590472       1.06254741       1.03900985       0.64499053       0.77182251       0.63081237       0.79353692       0.97402672       0.61569392       0.73727160       0.53376831       0.20984022       0.16217650       0.13892374       0.19331941
         0.18797592       0.22218985       0.32801589       0.33422035       0.23102735       0.33208672       0.18844387       0.27586964       0.32919078       0.24088282
         1.51439729       1.07187044       1.10160254       0.69042433       1.06935525       1.17698648       1.23547646       1.43973663       1.01603632       1.21923444       0.92185962       0.87879111       0.64778504       0.71735790       0.69177540       0.66920309       0.65881813       0.93158828       0.99627811       1.12475706
         0.92769424       0.44866007       0.49340539       0.37507653       0.56671815       0.63168785       0.54993768       1.09971298       0.92406908       1.12198209       1.28274253       0.95758198       0.90003899       0.54554481       0.50378565       0.34571430       0.20724159       0.08434670       0.09903861       0.19563011
         0.11446759       0.18338250       0.42601241       0.35526385       0.17698418       0.29489130       0.22804066       0.43143467       0.40032112       0.40324234
         2.25470344       1.65566319       1.30142295       1.56138639       1.40712134       0.99154987       1.37093141       1.18003428       0.67739501       0.98648223       0.95725432       0.84991923       0.46724478       0.48574555       1.23107183       0.82850429       0.61852087       1.12855663       1.59029238       1.14708860
         0.68678226       0.44430163       0.58735967       0.33320350       0.33716794       0.53259013       0.57069662       0.65788491       0.74749130       0.73506419       0.99444828       1.32360955       0.59633633       0.57848776       0.33530152       0.37322812       0.26137130       0.10992112       0.07438606       0.11693377
         0.14210148       0.18275014       0.35075140       0.24735987       0.36702394       0.26345520       0.39044801       0.32789710       0.50599319       0.49950460
         2.12608997       1.55547667       1.87186501       2.50156979       2.10594505       1.54058452       1.45093118       0.74953996       0.91708244       0.99786827       0.72352486       0.65702086       0.49096776       0.56966561       1.06459182       1.42695692       0.90199576       1.47397369       1.09091356       1.07590670
         0.74712399       0.55828845       0.46363032       0.28715779       0.24468076       0.42795373       0.69683305       0.62797762       0.60711672       0.73108054       0.92496694       1.24948156       0.78169826       0.62982884       0.28843566       0.28829955       0.23430436       0.10046077       0.09959253       0.15483884
         0.17279674       0.23405916       0.28829258       0.36396746       0.34569745       0.69766525       0.44511672       0.45249650       0.66313451       0.79173051
         1.84666909       1.84684483       1.37138954       1.29989998       2.01168381       1.28296882       1.15336927       1.09690626       1.26332557       1.26410438       0.88887951       0.69066812       0.64829842       0.64803767       1.45772564       2.26661793       1.08395689       1.08098556       0.92264475       0.71200833
         0.52475748       0.44771558       0.34047399       0.35793730       0.22303307       0.51172516       0.91191350       1.01261263       0.97675040       1.03965628       1.06385015       0.58765033       0.47678929       0.25288169       0.26110281       0.19699327       0.33379105       0.33728662       0.20271882       0.30214085
         0.28796226       0.27179988       0.23960052       0.32442834       0.45830269       0.40262104       0.32259457       0.27918752       0.49698141       0.80555408
         1.23286286       1.46883705       1.22680734       1.47911456       2.22028115       1.04207756       1.18511375       1.18761903       1.58081441       1.87303757       0.80704888       0.73632833       0.70847321       0.69235407       1.11371668       0.90815962       1.00072043       1.08165345       1.02942360       1.08586335
         0.71415469       0.67250349       0.43216354       0.30246144       0.46864440       0.46885031       0.44380751       0.70013471       1.17953800       1.16325937       0.71348383       0.59035091       0.34594638       0.28531547       0.28740273       0.34208077       0.44553131       0.51959836       0.49588708       0.40211660
         0.29724641       0.20068380       0.31658937       0.23285536       0.43451632       0.49057829       0.41722138       0.32174829       0.57544771       0.52589598
         1.30055013       1.12261088       0.97814645       0.79452168       0.90551647       1.21346952       1.57996821       1.54120701       2.62904849       2.27560111       1.62003792       1.38616764       1.29781602       0.78253246       0.84599360       0.94976376       0.68634832       0.75184030       0.82731546       0.81091027
         0.61327203       0.56537824       0.59110833       0.77568586       0.42701841       0.36802862       0.29166438       0.43410578       0.57335150       0.61593883       0.33179500       0.46186746       0.26106077       0.36472898       0.20470684       0.19665163       0.49207945       0.35546032       0.38039790       0.30678629
         0.28348504       0.34079416       0.39806907       0.29426999       0.47888589       0.89505434       0.52278183       0.51946238       0.39333743       0.55010992
         1.12165666       0.50414047       1.06577714       0.87265258       1.08807467       1.17848606       0.85135876       2.39621151       1.69446261       1.72577251       1.60690946       2.12316283       1.23086856       0.87957540       0.73562279       0.98475243       0.66429678       0.56967723       0.71563763       0.45249774
         0.38884670       0.54208182       0.87098166       0.71364535       0.37325759       0.26578843       0.35632305       0.39441258       0.61914577       0.33452144       0.52938912       0.38310270       0.30754527       0.40675274       0.21393594       0.28575199       0.55494101       0.33745204       0.29500505       0.24273503
         0.33504184       0.41312054       0.27260164       0.41514027       0.59059951       1.01023167       0.65953106       0.49290193       0.44954587       0.36544032
         1.02791089       1.11845058       0.95912673       0.84896474       1.00294219       0.87562123       1.45557399       1.35559122       1.32087674       1.14361946       1.20447050       1.06717099       1.46126052       1.33071923       0.81295697       0.93218974       0.48003093       0.51395692       0.36252840       0.36249251
         0.28009933       0.33161896       0.51443585       0.45110286       0.32727490       0.41117158       0.45847527       0.35447994       0.43609616       0.46373514       0.47465546       0.42064420       0.40318209       0.36170622       0.32803042       0.32247572       0.23990318       0.24386767       0.32688635       0.34968436
         0.58611409       0.45705972       0.35394080       0.49299406       0.47481995       0.52129261       0.69437541       0.49956975       0.58259848       0.50712859
         1.44285477       1.21490759       1.11524134       1.12221414       1.33659711       0.83336306       0.73690732       0.81085359       0.91475005       0.98769605       0.85096559       0.75672525       1.48819411       0.88982360       0.72173987       0.62110002       0.48667750       0.55628970       0.30982820       0.44632358
         0.37185636       0.26722131       0.32869101       0.27066487       0.35759001       0.59687771       0.78018453       0.38367209       0.34840788       0.30923917       0.37015313       0.42482925       0.25998535       0.29131018       0.39317233       0.62103604       0.34189600       0.40603476       0.25183708       0.58083085
         0.37682398       0.37350846       0.44278972       0.67131814       0.61918340       0.68866521       0.75823245       0.84728931       0.49429009       1.02136873
         0.94151207       1.21651735       1.40878715       1.88000415       1.70009157       1.36258013       1.18105575       0.67005300       1.09629671       1.14612546       1.16249428       1.47596167       1.03428188       0.72870086       0.56075974       0.87195877       0.45104963       0.37059504       0.43587717       0.27725135
         0.41086047       0.42057102       0.26167821       0.36579970       0.37363649       0.61342867       1.03774632       0.62776907       0.46532678       0.51627727       0.30798094       0.33619251       0.25180851       0.43642912       0.64603837       0.37942137       0.47789293       0.42783466       0.29345888       0.29404853
         0.45716922       0.36160396       0.41759782       0.54050157       0.71313436       0.80576943       0.82282722       0.87524391       0.61763061       0.90232839
         0.91896731       1.05334315       1.38723565       1.56794944       2.10847946       1.02801830       0.67693289       1.23556761       1.36128913       1.52069342       1.57116396       1.36040045       1.06930324       0.90371091       0.60203310       0.39416207       0.25203909       0.42899178       0.36753159       0.34830505
         0.56486666       0.39558588       0.38242015       0.48080915       0.60890516       0.59975212       0.94199706       0.51480072       0.38097694       0.32114612       0.42818986       0.48307236       0.49635653       0.53650552       0.81574486       0.57373036       0.43349027       0.44481352       0.28633714       0.50877497
         0.29296990       0.29505441       0.35774192       0.97130672       1.33965643       1.30276703       1.09641435       0.64623113       0.78156612       0.91558462
         0.55629989       0.74636356       0.84787566       0.99018063       0.98673717       0.94937407       0.59759537       0.90548822       1.46356734       1.70276741       1.39072514       1.32015138       1.29016027       0.77266212       0.57676624       0.45514821       0.31759298       0.49510183       0.25688820       0.43995002
         0.55838556       0.62226708       0.40517265       0.49247774       0.44740212       0.65772851       0.48335500       0.63583769       0.41752937       0.35919184       0.47973729       0.51561746       0.46266294       0.39251441       0.51327313       0.56454716       0.54943373       0.48336451       0.25240230       0.33521242
         0.23292697       0.11009422       0.39024566       0.78109037       1.43865344       1.50318635       1.63445009       1.28878901       0.94139359       1.05128501
         0.65956710       0.69889239       0.77947664       0.67821243       0.68264795       0.79899879       0.55384392       0.80446430       1.26615781       1.57044572       0.98742222       1.64770561       0.83936412       0.98697981       1.63995049       1.17105129       0.77473234       0.48628470       0.39245637       0.43528879
         0.56784708       0.53298026       0.75371714       0.61426369       0.67167470       1.02045984       0.75554959       0.67414458       0.64184346       0.49367577       0.31641135       0.27564226       0.39834614       0.45963113       0.67865032       0.63254930       0.61525337       0.49689597       0.51940556       0.39312252
         0.34750025       0.30645371       0.43700175       0.59996141       1.07795367       2.09353420       1.24662987       1.23479234       1.40782147       1.68133504
         0.59150541       0.53663687       0.83672076       1.06697905       0.87221406       0.82805539       1.20696377       1.24509639       1.73459530       0.95595422       1.09239634       0.83984578       1.07769873       1.41843850       2.14487630       0.91616916       0.76343371       0.47278243       0.63648837       0.87479110
         0.90266930       1.04741536       1.12055423       0.78355067       1.27348097       1.00557197       0.99028595       0.57146239       0.39628882       0.36655244       0.32471834       0.28244122       0.40340424       0.51718420       0.58431143       0.70782409       0.64460232       0.35042814       0.41066882       0.34186725