BEGIN options
  SAVE_FLOWS
END options

BEGIN packages
  OC6  gw_inv.oc  oc
  CHD6  gw_inv.chd  chd_0
  WEL6  gw_inv.wel  wel
  IC6  gw_inv.ic  ic
  DIS6  gw_inv.dis  dis
  NPF6  gw_inv.npf  npf
END packages

