BEGIN options
END options

BEGIN griddata
  icelltype
    INTERNAL  FACTOR  1
      0  0  0  0  0  0  0  0  0  0  0  0  0  0  0  0  0  0  0  0
    0  0  0  0  0  0  0  0  0  0  0  0  0  0  0  0  0  0  0  0
    0  0  0  0  0  0  0  0  0  0
    0  0  0  0  0  0  0  0  0  0  0  0  0  0  0  0  0  0  0  0
    0  0  0  0  0  0  0  0  0  0  0  0  0  0  0  0  0  0  0  0
    0  0  0  0  0  0  0  0  0  0
    0  0  0  0  0  0  0  0  0  0  0  0  0  0  0  0  0  0  0  0
    0  0  0  0  0  0  0  0  0  0  0  0  0  0  0  0  0  0  0  0
    0  0  0  0  0  0  0  0  0  0
    0  0  0  0  0  0  0  0  0  0  0  0  0  0  0  0  0  0  0  0
    0  0  0  0  0  0  0  0  0  0  0  0  0  0  0  0  0  0  0  0
    0  0  0  0  0  0  0  0  0  0
    0  0  0  0  0  0  0  0  0  0  0  0  0  0  0  0  0  0  0  0
    0  0  0  0  0  0  0  0  0  0  0  0  0  0  0  0  0  0  0  0
    0  0  0  0  0  0  0  0  0  0
    0  0  0  0  0  0  0  0  0  0  0  0  0  0  0  0  0  0  0  0
    0  0  0  0  0  0  0  0  0  0  0  0  0  0  0  0  0  0  0  0
    0  0  0  0  0  0  0  0  0  0
    0  0  0  0  0  0  0  0  0  0  0  0  0  0  0  0  0  0  0  0
    0  0  0  0  0  0  0  0  0  0  0  0  0  0  0  0  0  0  0  0
    0  0  0  0  0  0  0  0  0  0
    0  0  0  0  0  0  0  0  0  0  0  0  0  0  0  0  0  0  0  0
    0  0  0  0  0  0  0  0  0  0  0  0  0  0  0  0  0  0  0  0
    0  0  0  0  0  0  0  0  0  0
    0  0  0  0  0  0  0  0  0  0  0  0  0  0  0  0  0  0  0  0
    0  0  0  0  0  0  0  0  0  0  0  0  0  0  0  0  0  0  0  0
    0  0  0  0  0  0  0  0  0  0
    0  0  0  0  0  0  0  0  0  0  0  0  0  0  0  0  0  0  0  0
    0  0  0  0  0  0  0  0  0  0  0  0  0  0  0  0  0  0  0  0
    0  0  0  0  0  0  0  0  0  0
    0  0  0  0  0  0  0  0  0  0  0  0  0  0  0  0  0  0  0  0
    0  0  0  0  0  0  0  0  0  0  0  0  0  0  0  0  0  0  0  0
    0  0  0  0  0  0  0  0  0  0
    0  0  0  0  0  0  0  0  0  0  0  0  0  0  0  0  0  0  0  0
    0  0  0  0  0  0  0  0  0  0  0  0  0  0  0  0  0  0  0  0
    0  0  0  0  0  0  0  0  0  0
    0  0  0  0  0  0  0  0  0  0  0  0  0  0  0  0  0  0  0  0
    0  0  0  0  0  0  0  0  0  0  0  0  0  0  0  0  0  0  0  0
    0  0  0  0  0  0  0  0  0  0
    0  0  0  0  0  0  0  0  0  0  0  0  0  0  0  0  0  0  0  0
    0  0  0  0  0  0  0  0  0  0  0  0  0  0  0  0  0  0  0  0
    0  0  0  0  0  0  0  0  0  0
    0  0  0  0  0  0  0  0  0  0  0  0  0  0  0  0  0  0  0  0
    0  0  0  0  0  0  0  0  0  0  0  0  0  0  0  0  0  0  0  0
    0  0  0  0  0  0  0  0  0  0
    0  0  0  0  0  0  0  0  0  0  0  0  0  0  0  0  0  0  0  0
    0  0  0  0  0  0  0  0  0  0  0  0  0  0  0  0  0  0  0  0
    0  0  0  0  0  0  0  0  0  0
    0  0  0  0  0  0  0  0  0  0  0  0  0  0  0  0  0  0  0  0
    0  0  0  0  0  0  0  0  0  0  0  0  0  0  0  0  0  0  0  0
    0  0  0  0  0  0  0  0  0  0
    0  0  0  0  0  0  0  0  0  0  0  0  0  0  0  0  0  0  0  0
    0  0  0  0  0  0  0  0  0  0  0  0  0  0  0  0  0  0  0  0
    0  0  0  0  0  0  0  0  0  0
    0  0  0  0  0  0  0  0  0  0  0  0  0  0  0  0  0  0  0  0
    0  0  0  0  0  0  0  0  0  0  0  0  0  0  0  0  0  0  0  0
    0  0  0  0  0  0  0  0  0  0
    0  0  0  0  0  0  0  0  0  0  0  0  0  0  0  0  0  0  0  0
    0  0  0  0  0  0  0  0  0  0  0  0  0  0  0  0  0  0  0  0
    0  0  0  0  0  0  0  0  0  0
    0  0  0  0  0  0  0  0  0  0  0  0  0  0  0  0  0  0  0  0
    0  0  0  0  0  0  0  0  0  0  0  0  0  0  0  0  0  0  0  0
    0  0  0  0  0  0  0  0  0  0
    0  0  0  0  0  0  0  0  0  0  0  0  0  0  0  0  0  0  0  0
    0  0  0  0  0  0  0  0  0  0  0  0  0  0  0  0  0  0  0  0
    0  0  0  0  0  0  0  0  0  0
    0  0  0  0  0  0  0  0  0  0  0  0  0  0  0  0  0  0  0  0
    0  0  0  0  0  0  0  0  0  0  0  0  0  0  0  0  0  0  0  0
    0  0  0  0  0  0  0  0  0  0
    0  0  0  0  0  0  0  0  0  0  0  0  0  0  0  0  0  0  0  0
    0  0  0  0  0  0  0  0  0  0  0  0  0  0  0  0  0  0  0  0
    0  0  0  0  0  0  0  0  0  0
    0  0  0  0  0  0  0  0  0  0  0  0  0  0  0  0  0  0  0  0
    0  0  0  0  0  0  0  0  0  0  0  0  0  0  0  0  0  0  0  0
    0  0  0  0  0  0  0  0  0  0
    0  0  0  0  0  0  0  0  0  0  0  0  0  0  0  0  0  0  0  0
    0  0  0  0  0  0  0  0  0  0  0  0  0  0  0  0  0  0  0  0
    0  0  0  0  0  0  0  0  0  0
    0  0  0  0  0  0  0  0  0  0  0  0  0  0  0  0  0  0  0  0
    0  0  0  0  0  0  0  0  0  0  0  0  0  0  0  0  0  0  0  0
    0  0  0  0  0  0  0  0  0  0
    0  0  0  0  0  0  0  0  0  0  0  0  0  0  0  0  0  0  0  0
    0  0  0  0  0  0  0  0  0  0  0  0  0  0  0  0  0  0  0  0
    0  0  0  0  0  0  0  0  0  0
    0  0  0  0  0  0  0  0  0  0  0  0  0  0  0  0  0  0  0  0
    0  0  0  0  0  0  0  0  0  0  0  0  0  0  0  0  0  0  0  0
    0  0  0  0  0  0  0  0  0  0
    0  0  0  0  0  0  0  0  0  0  0  0  0  0  0  0  0  0  0  0
    0  0  0  0  0  0  0  0  0  0  0  0  0  0  0  0  0  0  0  0
    0  0  0  0  0  0  0  0  0  0
    0  0  0  0  0  0  0  0  0  0  0  0  0  0  0  0  0  0  0  0
    0  0  0  0  0  0  0  0  0  0  0  0  0  0  0  0  0  0  0  0
    0  0  0  0  0  0  0  0  0  0
    0  0  0  0  0  0  0  0  0  0  0  0  0  0  0  0  0  0  0  0
    0  0  0  0  0  0  0  0  0  0  0  0  0  0  0  0  0  0  0  0
    0  0  0  0  0  0  0  0  0  0
    0  0  0  0  0  0  0  0  0  0  0  0  0  0  0  0  0  0  0  0
    0  0  0  0  0  0  0  0  0  0  0  0  0  0  0  0  0  0  0  0
    0  0  0  0  0  0  0  0  0  0
    0  0  0  0  0  0  0  0  0  0  0  0  0  0  0  0  0  0  0  0
    0  0  0  0  0  0  0  0  0  0  0  0  0  0  0  0  0  0  0  0
    0  0  0  0  0  0  0  0  0  0
    0  0  0  0  0  0  0  0  0  0  0  0  0  0  0  0  0  0  0  0
    0  0  0  0  0  0  0  0  0  0  0  0  0  0  0  0  0  0  0  0
    0  0  0  0  0  0  0  0  0  0
    0  0  0  0  0  0  0  0  0  0  0  0  0  0  0  0  0  0  0  0
    0  0  0  0  0  0  0  0  0  0  0  0  0  0  0  0  0  0  0  0
    0  0  0  0  0  0  0  0  0  0
    0  0  0  0  0  0  0  0  0  0  0  0  0  0  0  0  0  0  0  0
    0  0  0  0  0  0  0  0  0  0  0  0  0  0  0  0  0  0  0  0
    0  0  0  0  0  0  0  0  0  0
    0  0  0  0  0  0  0  0  0  0  0  0  0  0  0  0  0  0  0  0
    0  0  0  0  0  0  0  0  0  0  0  0  0  0  0  0  0  0  0  0
    0  0  0  0  0  0  0  0  0  0
    0  0  0  0  0  0  0  0  0  0  0  0  0  0  0  0  0  0  0  0
    0  0  0  0  0  0  0  0  0  0  0  0  0  0  0  0  0  0  0  0
    0  0  0  0  0  0  0  0  0  0
    0  0  0  0  0  0  0  0  0  0  0  0  0  0  0  0  0  0  0  0
    0  0  0  0  0  0  0  0  0  0  0  0  0  0  0  0  0  0  0  0
    0  0  0  0  0  0  0  0  0  0
    0  0  0  0  0  0  0  0  0  0  0  0  0  0  0  0  0  0  0  0
    0  0  0  0  0  0  0  0  0  0  0  0  0  0  0  0  0  0  0  0
    0  0  0  0  0  0  0  0  0  0
    0  0  0  0  0  0  0  0  0  0  0  0  0  0  0  0  0  0  0  0
    0  0  0  0  0  0  0  0  0  0  0  0  0  0  0  0  0  0  0  0
    0  0  0  0  0  0  0  0  0  0
    0  0  0  0  0  0  0  0  0  0  0  0  0  0  0  0  0  0  0  0
    0  0  0  0  0  0  0  0  0  0  0  0  0  0  0  0  0  0  0  0
    0  0  0  0  0  0  0  0  0  0
    0  0  0  0  0  0  0  0  0  0  0  0  0  0  0  0  0  0  0  0
    0  0  0  0  0  0  0  0  0  0  0  0  0  0  0  0  0  0  0  0
    0  0  0  0  0  0  0  0  0  0
    0  0  0  0  0  0  0  0  0  0  0  0  0  0  0  0  0  0  0  0
    0  0  0  0  0  0  0  0  0  0  0  0  0  0  0  0  0  0  0  0
    0  0  0  0  0  0  0  0  0  0
    0  0  0  0  0  0  0  0  0  0  0  0  0  0  0  0  0  0  0  0
    0  0  0  0  0  0  0  0  0  0  0  0  0  0  0  0  0  0  0  0
    0  0  0  0  0  0  0  0  0  0
    0  0  0  0  0  0  0  0  0  0  0  0  0  0  0  0  0  0  0  0
    0  0  0  0  0  0  0  0  0  0  0  0  0  0  0  0  0  0  0  0
    0  0  0  0  0  0  0  0  0  0
    0  0  0  0  0  0  0  0  0  0  0  0  0  0  0  0  0  0  0  0
    0  0  0  0  0  0  0  0  0  0  0  0  0  0  0  0  0  0  0  0
    0  0  0  0  0  0  0  0  0  0
    0  0  0  0  0  0  0  0  0  0  0  0  0  0  0  0  0  0  0  0
    0  0  0  0  0  0  0  0  0  0  0  0  0  0  0  0  0  0  0  0
    0  0  0  0  0  0  0  0  0  0
    0  0  0  0  0  0  0  0  0  0  0  0  0  0  0  0  0  0  0  0
    0  0  0  0  0  0  0  0  0  0  0  0  0  0  0  0  0  0  0  0
    0  0  0  0  0  0  0  0  0  0
    0  0  0  0  0  0  0  0  0  0  0  0  0  0  0  0  0  0  0  0
    0  0  0  0  0  0  0  0  0  0  0  0  0  0  0  0  0  0  0  0
    0  0  0  0  0  0  0  0  0  0
    0  0  0  0  0  0  0  0  0  0  0  0  0  0  0  0  0  0  0  0
    0  0  0  0  0  0  0  0  0  0  0  0  0  0  0  0  0  0  0  0
    0  0  0  0  0  0  0  0  0  0
    0  0  0  0  0  0  0  0  0  0  0  0  0  0  0  0  0  0  0  0
    0  0  0  0  0  0  0  0  0  0  0  0  0  0  0  0  0  0  0  0
    0  0  0  0  0  0  0  0  0  0
    0  0  0  0  0  0  0  0  0  0  0  0  0  0  0  0  0  0  0  0
    0  0  0  0  0  0  0  0  0  0  0  0  0  0  0  0  0  0  0  0
    0  0  0  0  0  0  0  0  0  0
    0  0  0  0  0  0  0  0  0  0  0  0  0  0  0  0  0  0  0  0
    0  0  0  0  0  0  0  0  0  0  0  0  0  0  0  0  0  0  0  0
    0  0  0  0  0  0  0  0  0  0
    0  0  0  0  0  0  0  0  0  0  0  0  0  0  0  0  0  0  0  0
    0  0  0  0  0  0  0  0  0  0  0  0  0  0  0  0  0  0  0  0
    0  0  0  0  0  0  0  0  0  0
    0  0  0  0  0  0  0  0  0  0  0  0  0  0  0  0  0  0  0  0
    0  0  0  0  0  0  0  0  0  0  0  0  0  0  0  0  0  0  0  0
    0  0  0  0  0  0  0  0  0  0
    0  0  0  0  0  0  0  0  0  0  0  0  0  0  0  0  0  0  0  0
    0  0  0  0  0  0  0  0  0  0  0  0  0  0  0  0  0  0  0  0
    0  0  0  0  0  0  0  0  0  0
    0  0  0  0  0  0  0  0  0  0  0  0  0  0  0  0  0  0  0  0
    0  0  0  0  0  0  0  0  0  0  0  0  0  0  0  0  0  0  0  0
    0  0  0  0  0  0  0  0  0  0
    0  0  0  0  0  0  0  0  0  0  0  0  0  0  0  0  0  0  0  0
    0  0  0  0  0  0  0  0  0  0  0  0  0  0  0  0  0  0  0  0
    0  0  0  0  0  0  0  0  0  0
    0  0  0  0  0  0  0  0  0  0  0  0  0  0  0  0  0  0  0  0
    0  0  0  0  0  0  0  0  0  0  0  0  0  0  0  0  0  0  0  0
    0  0  0  0  0  0  0  0  0  0
    0  0  0  0  0  0  0  0  0  0  0  0  0  0  0  0  0  0  0  0
    0  0  0  0  0  0  0  0  0  0  0  0  0  0  0  0  0  0  0  0
    0  0  0  0  0  0  0  0  0  0
    0  0  0  0  0  0  0  0  0  0  0  0  0  0  0  0  0  0  0  0
    0  0  0  0  0  0  0  0  0  0  0  0  0  0  0  0  0  0  0  0
    0  0  0  0  0  0  0  0  0  0
    0  0  0  0  0  0  0  0  0  0  0  0  0  0  0  0  0  0  0  0
    0  0  0  0  0  0  0  0  0  0  0  0  0  0  0  0  0  0  0  0
    0  0  0  0  0  0  0  0  0  0
    0  0  0  0  0  0  0  0  0  0  0  0  0  0  0  0  0  0  0  0
    0  0  0  0  0  0  0  0  0  0  0  0  0  0  0  0  0  0  0  0
    0  0  0  0  0  0  0  0  0  0
    0  0  0  0  0  0  0  0  0  0  0  0  0  0  0  0  0  0  0  0
    0  0  0  0  0  0  0  0  0  0  0  0  0  0  0  0  0  0  0  0
    0  0  0  0  0  0  0  0  0  0
    0  0  0  0  0  0  0  0  0  0  0  0  0  0  0  0  0  0  0  0
    0  0  0  0  0  0  0  0  0  0  0  0  0  0  0  0  0  0  0  0
    0  0  0  0  0  0  0  0  0  0
    0  0  0  0  0  0  0  0  0  0  0  0  0  0  0  0  0  0  0  0
    0  0  0  0  0  0  0  0  0  0  0  0  0  0  0  0  0  0  0  0
    0  0  0  0  0  0  0  0  0  0
    0  0  0  0  0  0  0  0  0  0  0  0  0  0  0  0  0  0  0  0
    0  0  0  0  0  0  0  0  0  0  0  0  0  0  0  0  0  0  0  0
    0  0  0  0  0  0  0  0  0  0
    0  0  0  0  0  0  0  0  0  0  0  0  0  0  0  0  0  0  0  0
    0  0  0  0  0  0  0  0  0  0  0  0  0  0  0  0  0  0  0  0
    0  0  0  0  0  0  0  0  0  0
    0  0  0  0  0  0  0  0  0  0  0  0  0  0  0  0  0  0  0  0
    0  0  0  0  0  0  0  0  0  0  0  0  0  0  0  0  0  0  0  0
    0  0  0  0  0  0  0  0  0  0
    0  0  0  0  0  0  0  0  0  0  0  0  0  0  0  0  0  0  0  0
    0  0  0  0  0  0  0  0  0  0  0  0  0  0  0  0  0  0  0  0
    0  0  0  0  0  0  0  0  0  0
    0  0  0  0  0  0  0  0  0  0  0  0  0  0  0  0  0  0  0  0
    0  0  0  0  0  0  0  0  0  0  0  0  0  0  0  0  0  0  0  0
    0  0  0  0  0  0  0  0  0  0
    0  0  0  0  0  0  0  0  0  0  0  0  0  0  0  0  0  0  0  0
    0  0  0  0  0  0  0  0  0  0  0  0  0  0  0  0  0  0  0  0
    0  0  0  0  0  0  0  0  0  0
    0  0  0  0  0  0  0  0  0  0  0  0  0  0  0  0  0  0  0  0
    0  0  0  0  0  0  0  0  0  0  0  0  0  0  0  0  0  0  0  0
    0  0  0  0  0  0  0  0  0  0
    0  0  0  0  0  0  0  0  0  0  0  0  0  0  0  0  0  0  0  0
    0  0  0  0  0  0  0  0  0  0  0  0  0  0  0  0  0  0  0  0
    0  0  0  0  0  0  0  0  0  0
    0  0  0  0  0  0  0  0  0  0  0  0  0  0  0  0  0  0  0  0
    0  0  0  0  0  0  0  0  0  0  0  0  0  0  0  0  0  0  0  0
    0  0  0  0  0  0  0  0  0  0
    0  0  0  0  0  0  0  0  0  0  0  0  0  0  0  0  0  0  0  0
    0  0  0  0  0  0  0  0  0  0  0  0  0  0  0  0  0  0  0  0
    0  0  0  0  0  0  0  0  0  0
    0  0  0  0  0  0  0  0  0  0  0  0  0  0  0  0  0  0  0  0
    0  0  0  0  0  0  0  0  0  0  0  0  0  0  0  0  0  0  0  0
    0  0  0  0  0  0  0  0  0  0
    0  0  0  0  0  0  0  0  0  0  0  0  0  0  0  0  0  0  0  0
    0  0  0  0  0  0  0  0  0  0  0  0  0  0  0  0  0  0  0  0
    0  0  0  0  0  0  0  0  0  0
  k
    INTERNAL  FACTOR  1.0
           0.18898286       0.15680605       0.13533808       0.21738388       0.14224812       0.19863423       0.19070852       0.16090312       0.26835821       0.14942417       0.27497730       0.23977930       0.64283260       1.28539417       0.96671481       0.72901884       0.48070403       0.50215882       0.64964466       1.48748777
         1.66199724       1.19869052       1.88270837       1.95527980       1.49097343       1.72712595       2.51343546       1.91776711       2.33007136       2.08594600       2.04688792       1.42500283       1.04786385       0.61407315       0.64142586       0.46355191       0.21293292       0.22450419       0.13791006       0.12368405
         0.08420935       0.04714321       0.11806629       0.09559761       0.11602354       0.16946300       0.22690299       0.19690784       0.28594168       0.25098664
         0.12371351       0.14780711       0.11804571       0.19415598       0.20896983       0.16277233       0.20984070       0.25930089       0.27168815       0.29341001       0.34023779       0.51386166       0.59539232       1.29130437       1.48053338       0.57634226       0.45767805       0.54636752       1.68868716       1.56940021
         2.10086352       2.07584956       2.74426905       2.47439499       2.23796899       2.04504361       3.10070813       1.95433748       3.35442266       3.21560119       2.79873712       2.20282285       1.29078582       0.56665711       0.25874352       0.35691011       0.30625811       0.13640769       0.16450662       0.08434633
         0.05239557       0.03106915       0.05774552       0.09414580       0.10407916       0.06733261       0.26621721       0.20590693       0.17889747       0.27338791
         0.08998015       0.13566240       0.22838958       0.19725450       0.14099357       0.12621380       0.23918936       0.43767730       0.49921174       0.65294287       0.47799753       0.79105540       0.92983305       1.07385862       1.34151862       2.23595296       0.77239179       0.70486347       1.39779190       1.81969885
         2.70902691       3.17241149       2.87306254       2.94730444       2.22834622       2.34198295       2.14789583       2.88912401       2.24760409       2.26493248       2.70602569       2.08976751       1.29559592       0.40763546       0.21100147       0.15647872       0.29136991       0.17717035       0.08964358       0.06941895
         0.04643469       0.01991830       0.01760271       0.03392304       0.08988836       0.06250145       0.11115222       0.12587225       0.25217794       0.16911613
         0.11355652       0.16137286       0.26538697       0.18665110       0.14088936       0.15686973       0.29437129       0.34193174       0.72736887       0.77831361       0.72228094       1.06931097       0.86036090       0.75089823       1.38497015       1.21894795       1.15114022       1.03591195       1.22637432       2.27448036
         2.40029054       1.93275031       1.63182102       1.78809770       3.23657207       2.02166401       1.48351061       1.65438599       1.57880154       1.16025486       1.14158212       0.95553227       0.77523256       0.59071736       0.37953539       0.27902814       0.14007930       0.15649713       0.15380217       0.11301959
         0.08013863       0.03988007       0.04382817       0.04601814       0.06215950       0.10991025       0.13961433       0.09905662       0.14198659       0.25094678
         0.14762623       0.21428867       0.31125803       0.30780894       0.27485504       0.29926211       0.31409529       0.48092676       0.73490391       0.89169077       1.12290749       1.29041085       1.55700927       1.70904620       1.32507744       1.09072923       1.42323012       0.94848233       1.48609295       1.54442200
         2.13514432       2.33701551       1.61176029       2.70511472       2.04335061       1.57225167       1.42487056       1.61236167       1.66408194       0.86042461       0.71058769       0.48224459       0.72528334       0.44615798       0.37854512       0.24343056       0.23711631       0.26870381       0.17787848       0.19522464
         0.11993357       0.12861329       0.07918487       0.05365783       0.08738292       0.07073601       0.16822784       0.16665411       0.21132545       0.52020814
         0.17078799       0.39615278       0.40959224       0.49162262       0.35678000       0.67666033       0.64223707       0.81465138       0.73717025       0.89301521       1.14524509       1.89831692       2.85742001       1.62903390       1.11603448       1.10040550       1.01342609       0.61939773       0.49093601       0.98810771
         1.49434592       1.19911794       1.03010684       1.38184242       0.92554003       0.80590468       1.18362789       1.28371465       1.40240090       0.82789566       0.68025708       0.55143267       0.60274585       0.55653334       0.35407955       0.25864508       0.38243321       0.30401667       0.38677836       0.19270351
         0.18797593       0.22398924       0.13192093       0.12204399       0.12291816       0.12511560       0.29376242       0.39614841       0.32984846       0.52129503
         0.38217853       0.62664180       0.61866363       0.63322169       0.72076097       0.74917833       0.88620455       1.01988719       0.67304583       0.99188908       1.83806110       1.82757973       2.72325357       3.13472389       2.23405364       1.36633933       1.13062386       0.92462275       0.80425638       0.71318601
         0.90342250       1.03823004       1.06471279       1.18090120       0.97282928       0.82487085       1.05580967       0.76664664       1.41330155       1.33992544       1.33104704       0.78464770       0.83533037       0.47969928       0.53520274       0.32643429       0.26658278       0.36226403       0.56255272       0.22683093
         0.20897549       0.14247966       0.13135905       0.17761615       0.19010661       0.26527314       0.39485713       0.62069786       0.77625018       0.90701083
         0.90972363       0.85577381       0.60959563       0.64481103       0.44634614       0.54654264       0.45053925       1.12382351       1.00381843       0.88125847       1.58022104       2.26476593       1.64981195       2.32480616       2.29314404       2.00128696       1.36685331       1.04839903       0.63989288       0.73409588
         1.26469213       1.50845284       0.86189241       0.57089048       0.77480429       1.61242919       0.96908353       0.72739153       1.36916911       0.89088383       1.20377180       1.00628533       0.68651872       0.49866657       0.40863056       0.37677695       0.26586404       0.41378723       0.46722244       0.23711739
         0.19256698       0.13565853       0.14217969       0.29411776       0.30668635       0.27645384       0.51737274       0.57651017       0.87329521       0.92032364
         0.50045250       0.75339671       0.57979726       0.54542467       0.77884257       0.38932130       0.84217031       0.74643946       0.94355652       0.88573748       1.36786356       2.23054399       2.25739377       2.80130102       2.87804648       2.75447324       1.20115122       0.85875578       0.74025067       1.09156739
         1.10626932       1.48427009       0.80851520       0.97613175       0.97001298       1.13471770       1.27173458       0.69774641       0.71396202       1.54509060       0.98168926       0.68859811       0.92610951       0.54054836       0.67423686       0.72376803       0.73234984       0.67414978       0.48472349       0.21028018
         0.25427945       0.17767482       0.31303138       0.39136092       0.49489330       0.35461624       0.37555149       0.60252019       0.50782625       0.45551947
         0.70398829       0.66293636       0.46376244       0.53206356       0.62884996       0.74526240       1.22979634       0.68674207       0.93691168       1.04565191       1.98586721       2.23795137       2.23687117       2.07549186       2.85278953       1.54986212       1.36561194       1.29195940       0.73889635       1.32967998
         1.07881142       1.15281953       0.66485904       0.94488431       0.86193964       0.90232645       1.27020153       1.00833621       0.88053515       1.19936379       0.94494836       0.77021936       0.45880701       0.63069702       0.79686813       0.66372872       0.54879929       0.61256315       0.42569272       0.34329096
         0.34668961       0.31800360       0.34159955       0.53652099       0.49062924       0.64975958       0.61606021       0.65390185       0.73407642       0.72029361
         0.71001393       0.95420306       0.73316821       0.78939951       1.12430579       1.47404514       1.37290858       0.92633906       1.02901636       0.64367484       1.63555582       2.81737108       2.32603302       3.05681144       2.70941878       2.36793059       0.95631667       0.90931660       0.69970795       0.71049682
         1.17285368       1.06162285       0.76541218       1.08484454       1.08173664       0.75844524       0.91263449       1.06992612       0.71989672       0.80496260       1.09494235       0.50149949       0.30713490       0.33647905       0.35540652       0.24165764       0.39748087       0.44315074       0.49197258       0.33522244
         0.25448744       0.28098427       0.35571495       0.37526999       0.32270758       0.57654690       0.56567186       0.84321844       0.70893374       0.97187416
         0.49128698       0.59341359       0.62473939       0.78998564       1.06706060       1.48896843       1.49783322       1.13327774       1.37639508       1.43272666       1.37543452       2.78078831       2.61582803       2.09169757       2.81306192       1.57572962       1.23141171       0.78633812       0.66102594       0.66657791
         0.86350893       1.09809561       0.80257607       0.72700953       0.87039991       0.97392709       0.91975534       0.65379945       0.57999616       1.28494960       0.78247368       0.63143731       0.21318115       0.23357197       0.34579850       0.26533069       0.26369393       0.27020619       0.43015825       0.41652465
         0.33604003       0.30796744       0.29472939       0.34617298       0.31015205       0.49034819       0.51180129       0.50490102       1.14426628       0.92039898
         0.74899545       0.80885838       1.09521037       1.36260407       1.62620547       2.06174505       1.63385276       2.36494671       1.64649219       1.84093645       2.09546119       2.24926310       3.07689684       1.53233626       1.53956964       1.12301231       1.14986362       1.10093622       0.95771977       0.73581708
         1.28607295       1.17568818       0.93366305       1.17817162       1.02259762       0.78774277       0.70878908       0.90461865       1.10031065       0.65563466       0.56800003       0.52111271       0.28982652       0.20296313       0.26408616       0.21372574       0.21641537       0.44741202       0.39872634       0.53139905
         0.21086642       0.27441542       0.23268355       0.33482048       0.38648936       0.31421123       0.49260257       0.44012123       0.84098309       1.10967969
         0.73295716       1.11182048       1.36616756       1.62092821       1.38342464       2.80265876       2.37268907       1.56791733       2.32747014       1.86322019       2.37501519       1.84937244       2.48474686       2.03725867       1.42444787       1.07363209       1.55053718       0.75739111       0.96949902       1.07523015
         1.34326624       1.12908788       1.88723544       1.01827213       0.91029988       0.50720196       0.39511046       0.84510006       0.62162954       0.46280189       0.66308077       0.34375882       0.18819668       0.25094971       0.20249386       0.26409682       0.17187753       0.26418922       0.28387776       0.48298647
         0.23132572       0.21904201       0.20496335       0.22110387       0.26853850       0.30629443       0.26869602       0.49271040       0.48521829       0.37198582
         0.80542982       0.93544224       1.02527086       1.38724947       1.92928481       2.88224451       3.42431405       1.73563879       1.43334114       1.56446455       1.86565954       3.02627413       1.20217452       1.14668620       1.47871280       1.03834264       1.47441347       1.62766547       1.13771646       2.18460020
         1.47614507       1.68118344       1.27752255       1.28900165       0.58986971       0.53352580       0.57930767       0.43649574       0.33963370       0.25253810       0.30756482       0.44443621       0.44210956       0.28046607       0.17717656       0.19380459       0.18626628       0.17939110       0.27261187       0.27490274
         0.28470692       0.27784836       0.27625344       0.35661500       0.23349089       0.28191765       0.31938422       0.38793369       0.40187854       0.87379429
         0.78010117       1.46314913       1.45420250       1.37080924       3.13021014       2.59484777       1.64718534       1.37140202       1.09926693       1.46804403       1.26161020       1.64180157       1.85549285       1.57905901       0.97424037       0.99701999       1.17845780       1.40680651       1.09940580       1.47138486
         1.61312580       1.38455465       2.64257326       0.83640042       0.57699393       0.59105942       0.68510825       0.71434371       0.37764538       0.20322020       0.30222320       0.33510277       0.44702143       0.32524849       0.11708943       0.12941508       0.11175894       0.16334398       0.09431695       0.23558437
         0.29894139       0.35158365       0.29922165       0.24337189       0.31302148       0.32363631       0.42950913       0.49997666       0.35774721       0.61284409
         1.64835093       2.13479506       1.87627342       2.37718908       3.51675430       3.41570126       2.06857550       1.59044562       1.00155957       1.45907561       1.29566973       2.08419728       0.98389709       1.09867416       1.56529863       1.92982672       1.16149768       1.34740266       1.96594560       1.20315366
         1.33042091       1.25165200       1.76010049       0.72088077       0.87160996       0.83365856       1.06705549       0.61206458       0.22734650       0.25112462       0.20378432       0.37124115       0.32912243       0.34226022       0.19892747       0.19757885       0.11773960       0.15403852       0.22739355       0.13581332
         0.23830150       0.17448645       0.41342828       0.27874493       0.31540638       0.41269726       0.35907748       0.44027571       0.62637831       0.65757319
         2.43098276       2.15447850       1.81156251       2.23987378       2.45129444       2.40363120       1.89325023       2.53857670       1.80101336       1.23793218       1.00667371       1.38741707       1.36314360       1.30083065       1.09905325       1.19420007       1.35341766       1.00220389       1.91463357       1.94999397
         1.07318855       0.89622974       0.76422205       0.60468830       0.67690257       0.88388309       0.58783931       0.43481935       0.20408814       0.18625614       0.21530904       0.31366722       0.24843539       0.23636365       0.18024987       0.20291225       0.14700356       0.17017411       0.13609060       0.20515643
         0.22603238       0.31062706       0.43909929       0.44000966       0.37565511       0.45600591       0.27676556       0.37859975       0.53153315       0.53840424
         2.22316093       2.89287350       2.06656462       2.03800070       1.50733092       2.15886310       3.50708758       2.30569207       1.95976500       1.89940149       1.22718032       1.59468010       1.73575099       1.26511781       0.79052880       0.71708313       1.20249787       0.91663847       1.29557287       1.29942870
         1.68878905       1.04894775       0.88458044       0.68479568       0.51262563       0.61340366       0.53235223       0.36772415       0.39250750       0.29101082       0.24603179       0.41264757       0.20329992       0.14904395       0.17007754       0.16330802       0.17301732       0.18966287       0.18832060       0.23562073
         0.48932390       0.41640153       0.40116716       0.31222633       0.45145044       0.31335888       0.27194533       0.23048100       0.34785676       0.63147586
         1.62425440       1.98496486       2.05193033       1.82537068       2.08222363       1.99334515       1.52147033       1.53638670       1.08805109       2.11504086       1.82774636       1.32670546       1.74803015       1.07775602       0.63831317       0.47655478       0.61008842       1.13614297       1.64947651       1.17750549
         1.60722357       1.76728931       1.16394731       0.49305632       0.45372454       0.36403938       0.27541138       0.36997474       0.31733937       0.19318776       0.26314472       0.28107785       0.29150200       0.16107195       0.18026934       0.16528609       0.25705979       0.21375732       0.23875490       0.32772743