BEGIN options
  COMPLEXITY  simple
END options

BEGIN nonlinear
  OUTER_HCLOSE  1.00000000E-06
END nonlinear

BEGIN linear
  INNER_HCLOSE  1.00000000E-06
  inner_rclose  1.00000000E-06
END linear

